<additional xmlns:xsi="http://www.w3.org/2001/XMLSchema-instance" xsi:noNamespaceSchemaLocation="http://sumo.sf.net/xsd/additional_file.xsd">

	<vTypeProbe id="test1" type="type1" freq="10" file="salida.xml"/>

	<busStop id="busstop1" lane="1fi_0" startPos="220" endPos="230"/>


</additional>
