<?xml version="1.0" encoding="UTF-8"?>

<!-- generated on 10/31/13 12:32:55 by SUMO duarouter Version 0.18.0
<?xml version="1.0" encoding="UTF-8"?>

<configuration xmlns:xsi="http://www.w3.org/2001/XMLSchema-instance" xsi:noNamespaceSchemaLocation="http://sumo.sf.net/xsd/duarouterConfiguration.xsd">

    <input>
        <net-file value="adhoc.net.xml"/>
        <flow-files value="input_flows.flows.xml"/>
    </input>

    <output>
        <output-file value="Testtypes.rou.xml"/>
    </output>

</configuration>
-->

<routes xmlns:xsi="http://www.w3.org/2001/XMLSchema-instance" xsi:noNamespaceSchemaLocation="http://sumo.sf.net/xsd/routes_file.xsd">
    <vType id="type2" length="5.00" maxSpeed="70.00" speedDev="0.20" color="1,0,0">
        <carFollowing-Krauss accel="0.80" decel="4.50" sigma="0.50"/>
    </vType>
    <vehicle id="1.0" type="type2" depart="0.00" departLane="random" departPos="0.00">
        <route edges="1fi 1si 1o"/>
    </vehicle>
    <vType id="type1" length="5.00" maxSpeed="70.00" speedDev="0.10" color="0,1,0">
        <carFollowing-Krauss accel="0.80" decel="4.50" sigma="0.50"/>
    </vType>
    <vehicle id="2.0" type="type1" depart="0.00" departLane="random" departPos="0.00">
        <route edges="1fi 1si 1o"/>
    </vehicle>
    <vType id="BUS" length="15.00" maxSpeed="70.00" speedDev="0.10" guiShape="bus/city" color="0,0,1">
        <carFollowing-Krauss accel="2.60" decel="4.50" sigma="0.50"/>
    </vType>
    <vehicle id="3.0" type="BUS" depart="0.00" departLane="random" departPos="0.00">
        <route edges="1fi 1si 1o"/>
	<stop busStop="busstop1" duration="20"/>
    </vehicle>
    <vehicle id="1.1" type="type2" depart="3.50" departLane="random" departPos="0.00">
        <route edges="1fi 1si 1o"/>
    </vehicle>
    <vehicle id="2.1" type="type1" depart="3.50" departLane="random" departPos="0.00">
        <route edges="1fi 1si 1o"/>
    </vehicle>
    <vehicle id="3.1" type="BUS" depart="3.50" departLane="random" departPos="0.00">
        <route edges="1fi 1si 1o"/>
	<stop busStop="busstop1" duration="30"/>
    </vehicle>
    <vehicle id="1.2" type="type2" depart="7.00" departLane="random" departPos="0.00">
        <route edges="1fi 1si 1o"/>
    </vehicle>
    <vehicle id="2.2" type="type1" depart="7.00" departLane="random" departPos="0.00">
        <route edges="1fi 1si 1o"/>
    </vehicle>
    <vehicle id="3.2" type="BUS" depart="7.00" departLane="random" departPos="0.00">
        <route edges="1fi 1si 1o"/>
	<stop busStop="busstop1" duration="24"/>
    </vehicle>
    <vehicle id="1.3" type="type2" depart="10.50" departLane="random" departPos="0.00">
        <route edges="1fi 1si 1o"/>
    </vehicle>
    <vehicle id="2.3" type="type1" depart="10.50" departLane="random" departPos="0.00">
        <route edges="1fi 1si 1o"/>
    </vehicle>
    <vehicle id="3.3" type="BUS" depart="10.50" departLane="random" departPos="0.00">
        <route edges="1fi 1si 1o"/>
    </vehicle>
    <vehicle id="1.4" type="type2" depart="14.00" departLane="random" departPos="0.00">
        <route edges="1fi 1si 1o"/>
    </vehicle>
    <vehicle id="2.4" type="type1" depart="14.00" departLane="random" departPos="0.00">
        <route edges="1fi 1si 1o"/>
    </vehicle>
    <vehicle id="3.4" type="BUS" depart="14.00" departLane="random" departPos="0.00">
        <route edges="1fi 1si 1o"/>
	<stop busStop="busstop1" duration="43"/>
    </vehicle>
    <vehicle id="1.5" type="type2" depart="17.50" departLane="random" departPos="0.00">
        <route edges="1fi 1si 1o"/>
    </vehicle>
    <vehicle id="2.5" type="type1" depart="17.50" departLane="random" departPos="0.00">
        <route edges="1fi 1si 1o"/>
    </vehicle>
    <vehicle id="3.5" type="BUS" depart="17.50" departLane="random" departPos="0.00">
        <route edges="1fi 1si 1o"/>
    </vehicle>
    <vehicle id="1.6" type="type2" depart="21.00" departLane="random" departPos="0.00">
        <route edges="1fi 1si 1o"/>
    </vehicle>
    <vehicle id="2.6" type="type1" depart="21.00" departLane="random" departPos="0.00">
        <route edges="1fi 1si 1o"/>
    </vehicle>
    <vehicle id="3.6" type="BUS" depart="21.00" departLane="random" departPos="0.00">
        <route edges="1fi 1si 1o"/>
	<stop busStop="busstop1" duration="27"/>
    </vehicle>
    <vehicle id="1.7" type="type2" depart="24.50" departLane="random" departPos="0.00">
        <route edges="1fi 1si 1o"/>
    </vehicle>
    <vehicle id="2.7" type="type1" depart="24.50" departLane="random" departPos="0.00">
        <route edges="1fi 1si 1o"/>
    </vehicle>
    <vehicle id="3.7" type="BUS" depart="24.50" departLane="random" departPos="0.00">
        <route edges="1fi 1si 1o"/>
	<stop busStop="busstop1" duration="10"/>
    </vehicle>
    <vehicle id="1.8" type="type2" depart="28.00" departLane="random" departPos="0.00">
        <route edges="1fi 1si 1o"/>
    </vehicle>
    <vehicle id="2.8" type="type1" depart="28.00" departLane="random" departPos="0.00">
        <route edges="1fi 1si 1o"/>
    </vehicle>
    <vehicle id="3.8" type="BUS" depart="28.00" departLane="random" departPos="0.00">
        <route edges="1fi 1si 1o"/>
	<stop busStop="busstop1" duration="10"/>
    </vehicle>
    <vehicle id="1.9" type="type2" depart="31.50" departLane="random" departPos="0.00">
        <route edges="1fi 1si 1o"/>
    </vehicle>
    <vehicle id="2.9" type="type1" depart="31.50" departLane="random" departPos="0.00">
        <route edges="1fi 1si 1o"/>
    </vehicle>
    <vehicle id="3.9" type="BUS" depart="31.50" departLane="random" departPos="0.00">
        <route edges="1fi 1si 1o"/>
    </vehicle>
    <vehicle id="1.10" type="type2" depart="35.00" departLane="random" departPos="0.00">
        <route edges="1fi 1si 1o"/>
    </vehicle>
    <vehicle id="2.10" type="type1" depart="35.00" departLane="random" departPos="0.00">
        <route edges="1fi 1si 1o"/>
    </vehicle>
    <vehicle id="3.10" type="BUS" depart="35.00" departLane="random" departPos="0.00">
        <route edges="1fi 1si 1o"/>
	<stop busStop="busstop1" duration="5"/>
    </vehicle>
    <vehicle id="1.11" type="type2" depart="38.50" departLane="random" departPos="0.00">
        <route edges="1fi 1si 1o"/>
    </vehicle>
    <vehicle id="2.11" type="type1" depart="38.50" departLane="random" departPos="0.00">
        <route edges="1fi 1si 1o"/>
    </vehicle>
    <vehicle id="3.11" type="BUS" depart="38.50" departLane="random" departPos="0.00">
        <route edges="1fi 1si 1o"/>
	<stop busStop="busstop1" duration="24"/>
    </vehicle>
    <vehicle id="1.12" type="type2" depart="42.00" departLane="random" departPos="0.00">
        <route edges="1fi 1si 1o"/>
    </vehicle>
    <vehicle id="2.12" type="type1" depart="42.00" departLane="random" departPos="0.00">
        <route edges="1fi 1si 1o"/>
    </vehicle>
    <vehicle id="3.12" type="BUS" depart="42.00" departLane="random" departPos="0.00">
        <route edges="1fi 1si 1o"/>
	<stop busStop="busstop1" duration="40"/>
    </vehicle>
    <vehicle id="1.13" type="type2" depart="45.50" departLane="random" departPos="0.00">
        <route edges="1fi 1si 1o"/>
    </vehicle>
    <vehicle id="2.13" type="type1" depart="45.50" departLane="random" departPos="0.00">
        <route edges="1fi 1si 1o"/>
    </vehicle>
    <vehicle id="3.13" type="BUS" depart="45.50" departLane="random" departPos="0.00">
        <route edges="1fi 1si 1o"/>
	<stop busStop="busstop1" duration="34"/>
    </vehicle>
    <vehicle id="1.14" type="type2" depart="49.00" departLane="random" departPos="0.00">
        <route edges="1fi 1si 1o"/>
    </vehicle>
    <vehicle id="2.14" type="type1" depart="49.00" departLane="random" departPos="0.00">
        <route edges="1fi 1si 1o"/>
    </vehicle>
    <vehicle id="3.14" type="BUS" depart="49.00" departLane="random" departPos="0.00">
        <route edges="1fi 1si 1o"/>
	<stop busStop="busstop1" duration="22"/>
    </vehicle>
    <vehicle id="1.15" type="type2" depart="52.50" departLane="random" departPos="0.00">
        <route edges="1fi 1si 1o"/>
    </vehicle>
    <vehicle id="2.15" type="type1" depart="52.50" departLane="random" departPos="0.00">
        <route edges="1fi 1si 1o"/>
    </vehicle>
    <vehicle id="3.15" type="BUS" depart="52.50" departLane="random" departPos="0.00">
        <route edges="1fi 1si 1o"/>
    </vehicle>
    <vehicle id="1.16" type="type2" depart="56.00" departLane="random" departPos="0.00">
        <route edges="1fi 1si 1o"/>
    </vehicle>
    <vehicle id="2.16" type="type1" depart="56.00" departLane="random" departPos="0.00">
        <route edges="1fi 1si 1o"/>
    </vehicle>
    <vehicle id="3.16" type="BUS" depart="56.00" departLane="random" departPos="0.00">
        <route edges="1fi 1si 1o"/>
    </vehicle>
    <vehicle id="1.17" type="type2" depart="59.50" departLane="random" departPos="0.00">
        <route edges="1fi 1si 1o"/>
    </vehicle>
    <vehicle id="2.17" type="type1" depart="59.50" departLane="random" departPos="0.00">
        <route edges="1fi 1si 1o"/>
    </vehicle>
    <vehicle id="3.17" type="BUS" depart="59.50" departLane="random" departPos="0.00">
        <route edges="1fi 1si 1o"/>
    </vehicle>
    <vehicle id="1.18" type="type2" depart="63.00" departLane="random" departPos="0.00">
        <route edges="1fi 1si 1o"/>
    </vehicle>
    <vehicle id="2.18" type="type1" depart="63.00" departLane="random" departPos="0.00">
        <route edges="1fi 1si 1o"/>
    </vehicle>
    <vehicle id="3.18" type="BUS" depart="63.00" departLane="random" departPos="0.00">
        <route edges="1fi 1si 1o"/>
    </vehicle>
    <vehicle id="1.19" type="type2" depart="66.50" departLane="random" departPos="0.00">
        <route edges="1fi 1si 1o"/>
    </vehicle>
    <vehicle id="2.19" type="type1" depart="66.50" departLane="random" departPos="0.00">
        <route edges="1fi 1si 1o"/>
    </vehicle>
    <vehicle id="3.19" type="BUS" depart="66.50" departLane="random" departPos="0.00">
        <route edges="1fi 1si 1o"/>
    </vehicle>
    <vehicle id="1.20" type="type2" depart="70.00" departLane="random" departPos="0.00">
        <route edges="1fi 1si 1o"/>
    </vehicle>
    <vehicle id="2.20" type="type1" depart="70.00" departLane="random" departPos="0.00">
        <route edges="1fi 1si 1o"/>
    </vehicle>
    <vehicle id="3.20" type="BUS" depart="70.00" departLane="random" departPos="0.00">
        <route edges="1fi 1si 1o"/>
    </vehicle>
    <vehicle id="1.21" type="type2" depart="73.50" departLane="random" departPos="0.00">
        <route edges="1fi 1si 1o"/>
    </vehicle>
    <vehicle id="2.21" type="type1" depart="73.50" departLane="random" departPos="0.00">
        <route edges="1fi 1si 1o"/>
    </vehicle>
    <vehicle id="3.21" type="BUS" depart="73.50" departLane="random" departPos="0.00">
        <route edges="1fi 1si 1o"/>
    </vehicle>
    <vehicle id="1.22" type="type2" depart="77.00" departLane="random" departPos="0.00">
        <route edges="1fi 1si 1o"/>
    </vehicle>
    <vehicle id="2.22" type="type1" depart="77.00" departLane="random" departPos="0.00">
        <route edges="1fi 1si 1o"/>
    </vehicle>
    <vehicle id="3.22" type="BUS" depart="77.00" departLane="random" departPos="0.00">
        <route edges="1fi 1si 1o"/>
    </vehicle>
    <vehicle id="1.23" type="type2" depart="80.50" departLane="random" departPos="0.00">
        <route edges="1fi 1si 1o"/>
    </vehicle>
    <vehicle id="2.23" type="type1" depart="80.50" departLane="random" departPos="0.00">
        <route edges="1fi 1si 1o"/>
    </vehicle>
    <vehicle id="3.23" type="BUS" depart="80.50" departLane="random" departPos="0.00">
        <route edges="1fi 1si 1o"/>
    </vehicle>
    <vehicle id="1.24" type="type2" depart="84.00" departLane="random" departPos="0.00">
        <route edges="1fi 1si 1o"/>
    </vehicle>
    <vehicle id="2.24" type="type1" depart="84.00" departLane="random" departPos="0.00">
        <route edges="1fi 1si 1o"/>
    </vehicle>
    <vehicle id="3.24" type="BUS" depart="84.00" departLane="random" departPos="0.00">
        <route edges="1fi 1si 1o"/>
    </vehicle>
    <vehicle id="1.25" type="type2" depart="87.50" departLane="random" departPos="0.00">
        <route edges="1fi 1si 1o"/>
    </vehicle>
    <vehicle id="2.25" type="type1" depart="87.50" departLane="random" departPos="0.00">
        <route edges="1fi 1si 1o"/>
    </vehicle>
    <vehicle id="3.25" type="BUS" depart="87.50" departLane="random" departPos="0.00">
        <route edges="1fi 1si 1o"/>
    </vehicle>
    <vehicle id="1.26" type="type2" depart="91.00" departLane="random" departPos="0.00">
        <route edges="1fi 1si 1o"/>
    </vehicle>
    <vehicle id="2.26" type="type1" depart="91.00" departLane="random" departPos="0.00">
        <route edges="1fi 1si 1o"/>
    </vehicle>
    <vehicle id="3.26" type="BUS" depart="91.00" departLane="random" departPos="0.00">
        <route edges="1fi 1si 1o"/>
    </vehicle>
    <vehicle id="1.27" type="type2" depart="94.50" departLane="random" departPos="0.00">
        <route edges="1fi 1si 1o"/>
    </vehicle>
    <vehicle id="2.27" type="type1" depart="94.50" departLane="random" departPos="0.00">
        <route edges="1fi 1si 1o"/>
    </vehicle>
    <vehicle id="3.27" type="BUS" depart="94.50" departLane="random" departPos="0.00">
        <route edges="1fi 1si 1o"/>
    </vehicle>
    <vehicle id="1.28" type="type2" depart="98.00" departLane="random" departPos="0.00">
        <route edges="1fi 1si 1o"/>
    </vehicle>
    <vehicle id="2.28" type="type1" depart="98.00" departLane="random" departPos="0.00">
        <route edges="1fi 1si 1o"/>
    </vehicle>
    <vehicle id="3.28" type="BUS" depart="98.00" departLane="random" departPos="0.00">
        <route edges="1fi 1si 1o"/>
    </vehicle>
    <vehicle id="1.29" type="type2" depart="101.50" departLane="random" departPos="0.00">
        <route edges="1fi 1si 1o"/>
    </vehicle>
    <vehicle id="2.29" type="type1" depart="101.50" departLane="random" departPos="0.00">
        <route edges="1fi 1si 1o"/>
    </vehicle>
    <vehicle id="3.29" type="BUS" depart="101.50" departLane="random" departPos="0.00">
        <route edges="1fi 1si 1o"/>
    </vehicle>
    <vehicle id="1.30" type="type2" depart="105.00" departLane="random" departPos="0.00">
        <route edges="1fi 1si 1o"/>
    </vehicle>
    <vehicle id="2.30" type="type1" depart="105.00" departLane="random" departPos="0.00">
        <route edges="1fi 1si 1o"/>
    </vehicle>
    <vehicle id="3.30" type="BUS" depart="105.00" departLane="random" departPos="0.00">
        <route edges="1fi 1si 1o"/>
    </vehicle>
    <vehicle id="1.31" type="type2" depart="108.50" departLane="random" departPos="0.00">
        <route edges="1fi 1si 1o"/>
    </vehicle>
    <vehicle id="2.31" type="type1" depart="108.50" departLane="random" departPos="0.00">
        <route edges="1fi 1si 1o"/>
    </vehicle>
    <vehicle id="3.31" type="BUS" depart="108.50" departLane="random" departPos="0.00">
        <route edges="1fi 1si 1o"/>
    </vehicle>
    <vehicle id="1.32" type="type2" depart="112.00" departLane="random" departPos="0.00">
        <route edges="1fi 1si 1o"/>
    </vehicle>
    <vehicle id="2.32" type="type1" depart="112.00" departLane="random" departPos="0.00">
        <route edges="1fi 1si 1o"/>
    </vehicle>
    <vehicle id="3.32" type="BUS" depart="112.00" departLane="random" departPos="0.00">
        <route edges="1fi 1si 1o"/>
    </vehicle>
    <vehicle id="1.33" type="type2" depart="115.50" departLane="random" departPos="0.00">
        <route edges="1fi 1si 1o"/>
    </vehicle>
    <vehicle id="2.33" type="type1" depart="115.50" departLane="random" departPos="0.00">
        <route edges="1fi 1si 1o"/>
    </vehicle>
    <vehicle id="3.33" type="BUS" depart="115.50" departLane="random" departPos="0.00">
        <route edges="1fi 1si 1o"/>
    </vehicle>
    <vehicle id="1.34" type="type2" depart="119.00" departLane="random" departPos="0.00">
        <route edges="1fi 1si 1o"/>
    </vehicle>
    <vehicle id="2.34" type="type1" depart="119.00" departLane="random" departPos="0.00">
        <route edges="1fi 1si 1o"/>
    </vehicle>
    <vehicle id="3.34" type="BUS" depart="119.00" departLane="random" departPos="0.00">
        <route edges="1fi 1si 1o"/>
    </vehicle>
    <vehicle id="1.35" type="type2" depart="122.50" departLane="random" departPos="0.00">
        <route edges="1fi 1si 1o"/>
    </vehicle>
    <vehicle id="2.35" type="type1" depart="122.50" departLane="random" departPos="0.00">
        <route edges="1fi 1si 1o"/>
    </vehicle>
    <vehicle id="3.35" type="BUS" depart="122.50" departLane="random" departPos="0.00">
        <route edges="1fi 1si 1o"/>
    </vehicle>
    <vehicle id="1.36" type="type2" depart="126.00" departLane="random" departPos="0.00">
        <route edges="1fi 1si 1o"/>
    </vehicle>
    <vehicle id="2.36" type="type1" depart="126.00" departLane="random" departPos="0.00">
        <route edges="1fi 1si 1o"/>
    </vehicle>
    <vehicle id="3.36" type="BUS" depart="126.00" departLane="random" departPos="0.00">
        <route edges="1fi 1si 1o"/>
    </vehicle>
    <vehicle id="1.37" type="type2" depart="129.50" departLane="random" departPos="0.00">
        <route edges="1fi 1si 1o"/>
    </vehicle>
    <vehicle id="2.37" type="type1" depart="129.50" departLane="random" departPos="0.00">
        <route edges="1fi 1si 1o"/>
    </vehicle>
    <vehicle id="3.37" type="BUS" depart="129.50" departLane="random" departPos="0.00">
        <route edges="1fi 1si 1o"/>
    </vehicle>
    <vehicle id="1.38" type="type2" depart="133.00" departLane="random" departPos="0.00">
        <route edges="1fi 1si 1o"/>
    </vehicle>
    <vehicle id="2.38" type="type1" depart="133.00" departLane="random" departPos="0.00">
        <route edges="1fi 1si 1o"/>
    </vehicle>
    <vehicle id="3.38" type="BUS" depart="133.00" departLane="random" departPos="0.00">
        <route edges="1fi 1si 1o"/>
    </vehicle>
    <vehicle id="1.39" type="type2" depart="136.50" departLane="random" departPos="0.00">
        <route edges="1fi 1si 1o"/>
    </vehicle>
    <vehicle id="2.39" type="type1" depart="136.50" departLane="random" departPos="0.00">
        <route edges="1fi 1si 1o"/>
    </vehicle>
    <vehicle id="3.39" type="BUS" depart="136.50" departLane="random" departPos="0.00">
        <route edges="1fi 1si 1o"/>
    </vehicle>
    <vehicle id="1.40" type="type2" depart="140.00" departLane="random" departPos="0.00">
        <route edges="1fi 1si 1o"/>
    </vehicle>
    <vehicle id="2.40" type="type1" depart="140.00" departLane="random" departPos="0.00">
        <route edges="1fi 1si 1o"/>
    </vehicle>
    <vehicle id="3.40" type="BUS" depart="140.00" departLane="random" departPos="0.00">
        <route edges="1fi 1si 1o"/>
    </vehicle>
    <vehicle id="1.41" type="type2" depart="143.50" departLane="random" departPos="0.00">
        <route edges="1fi 1si 1o"/>
    </vehicle>
    <vehicle id="2.41" type="type1" depart="143.50" departLane="random" departPos="0.00">
        <route edges="1fi 1si 1o"/>
    </vehicle>
    <vehicle id="3.41" type="BUS" depart="143.50" departLane="random" departPos="0.00">
        <route edges="1fi 1si 1o"/>
    </vehicle>
    <vehicle id="1.42" type="type2" depart="147.00" departLane="random" departPos="0.00">
        <route edges="1fi 1si 1o"/>
    </vehicle>
    <vehicle id="2.42" type="type1" depart="147.00" departLane="random" departPos="0.00">
        <route edges="1fi 1si 1o"/>
    </vehicle>
    <vehicle id="3.42" type="BUS" depart="147.00" departLane="random" departPos="0.00">
        <route edges="1fi 1si 1o"/>
    </vehicle>
    <vehicle id="1.43" type="type2" depart="150.50" departLane="random" departPos="0.00">
        <route edges="1fi 1si 1o"/>
    </vehicle>
    <vehicle id="2.43" type="type1" depart="150.50" departLane="random" departPos="0.00">
        <route edges="1fi 1si 1o"/>
    </vehicle>
    <vehicle id="3.43" type="BUS" depart="150.50" departLane="random" departPos="0.00">
        <route edges="1fi 1si 1o"/>
    </vehicle>
    <vehicle id="1.44" type="type2" depart="154.00" departLane="random" departPos="0.00">
        <route edges="1fi 1si 1o"/>
    </vehicle>
    <vehicle id="2.44" type="type1" depart="154.00" departLane="random" departPos="0.00">
        <route edges="1fi 1si 1o"/>
    </vehicle>
    <vehicle id="3.44" type="BUS" depart="154.00" departLane="random" departPos="0.00">
        <route edges="1fi 1si 1o"/>
    </vehicle>
    <vehicle id="1.45" type="type2" depart="157.50" departLane="random" departPos="0.00">
        <route edges="1fi 1si 1o"/>
    </vehicle>
    <vehicle id="2.45" type="type1" depart="157.50" departLane="random" departPos="0.00">
        <route edges="1fi 1si 1o"/>
    </vehicle>
    <vehicle id="3.45" type="BUS" depart="157.50" departLane="random" departPos="0.00">
        <route edges="1fi 1si 1o"/>
    </vehicle>
    <vehicle id="1.46" type="type2" depart="161.00" departLane="random" departPos="0.00">
        <route edges="1fi 1si 1o"/>
    </vehicle>
    <vehicle id="2.46" type="type1" depart="161.00" departLane="random" departPos="0.00">
        <route edges="1fi 1si 1o"/>
    </vehicle>
    <vehicle id="3.46" type="BUS" depart="161.00" departLane="random" departPos="0.00">
        <route edges="1fi 1si 1o"/>
    </vehicle>
    <vehicle id="1.47" type="type2" depart="164.50" departLane="random" departPos="0.00">
        <route edges="1fi 1si 1o"/>
    </vehicle>
    <vehicle id="2.47" type="type1" depart="164.50" departLane="random" departPos="0.00">
        <route edges="1fi 1si 1o"/>
    </vehicle>
    <vehicle id="3.47" type="BUS" depart="164.50" departLane="random" departPos="0.00">
        <route edges="1fi 1si 1o"/>
    </vehicle>
    <vehicle id="1.48" type="type2" depart="168.00" departLane="random" departPos="0.00">
        <route edges="1fi 1si 1o"/>
    </vehicle>
    <vehicle id="2.48" type="type1" depart="168.00" departLane="random" departPos="0.00">
        <route edges="1fi 1si 1o"/>
    </vehicle>
    <vehicle id="3.48" type="BUS" depart="168.00" departLane="random" departPos="0.00">
        <route edges="1fi 1si 1o"/>
    </vehicle>
    <vehicle id="1.49" type="type2" depart="171.50" departLane="random" departPos="0.00">
        <route edges="1fi 1si 1o"/>
    </vehicle>
    <vehicle id="2.49" type="type1" depart="171.50" departLane="random" departPos="0.00">
        <route edges="1fi 1si 1o"/>
    </vehicle>
    <vehicle id="3.49" type="BUS" depart="171.50" departLane="random" departPos="0.00">
        <route edges="1fi 1si 1o"/>
    </vehicle>
    <vehicle id="1.50" type="type2" depart="175.00" departLane="random" departPos="0.00">
        <route edges="1fi 1si 1o"/>
    </vehicle>
    <vehicle id="2.50" type="type1" depart="175.00" departLane="random" departPos="0.00">
        <route edges="1fi 1si 1o"/>
    </vehicle>
    <vehicle id="3.50" type="BUS" depart="175.00" departLane="random" departPos="0.00">
        <route edges="1fi 1si 1o"/>
    </vehicle>
    <vehicle id="1.51" type="type2" depart="178.50" departLane="random" departPos="0.00">
        <route edges="1fi 1si 1o"/>
    </vehicle>
    <vehicle id="2.51" type="type1" depart="178.50" departLane="random" departPos="0.00">
        <route edges="1fi 1si 1o"/>
    </vehicle>
    <vehicle id="3.51" type="BUS" depart="178.50" departLane="random" departPos="0.00">
        <route edges="1fi 1si 1o"/>
    </vehicle>
    <vehicle id="1.52" type="type2" depart="182.00" departLane="random" departPos="0.00">
        <route edges="1fi 1si 1o"/>
    </vehicle>
    <vehicle id="2.52" type="type1" depart="182.00" departLane="random" departPos="0.00">
        <route edges="1fi 1si 1o"/>
    </vehicle>
    <vehicle id="3.52" type="BUS" depart="182.00" departLane="random" departPos="0.00">
        <route edges="1fi 1si 1o"/>
    </vehicle>
    <vehicle id="1.53" type="type2" depart="185.50" departLane="random" departPos="0.00">
        <route edges="1fi 1si 1o"/>
    </vehicle>
    <vehicle id="2.53" type="type1" depart="185.50" departLane="random" departPos="0.00">
        <route edges="1fi 1si 1o"/>
    </vehicle>
    <vehicle id="3.53" type="BUS" depart="185.50" departLane="random" departPos="0.00">
        <route edges="1fi 1si 1o"/>
    </vehicle>
    <vehicle id="1.54" type="type2" depart="189.00" departLane="random" departPos="0.00">
        <route edges="1fi 1si 1o"/>
    </vehicle>
    <vehicle id="2.54" type="type1" depart="189.00" departLane="random" departPos="0.00">
        <route edges="1fi 1si 1o"/>
    </vehicle>
    <vehicle id="3.54" type="BUS" depart="189.00" departLane="random" departPos="0.00">
        <route edges="1fi 1si 1o"/>
    </vehicle>
    <vehicle id="1.55" type="type2" depart="192.50" departLane="random" departPos="0.00">
        <route edges="1fi 1si 1o"/>
    </vehicle>
    <vehicle id="2.55" type="type1" depart="192.50" departLane="random" departPos="0.00">
        <route edges="1fi 1si 1o"/>
    </vehicle>
    <vehicle id="3.55" type="BUS" depart="192.50" departLane="random" departPos="0.00">
        <route edges="1fi 1si 1o"/>
    </vehicle>
    <vehicle id="1.56" type="type2" depart="196.00" departLane="random" departPos="0.00">
        <route edges="1fi 1si 1o"/>
    </vehicle>
    <vehicle id="2.56" type="type1" depart="196.00" departLane="random" departPos="0.00">
        <route edges="1fi 1si 1o"/>
    </vehicle>
    <vehicle id="3.56" type="BUS" depart="196.00" departLane="random" departPos="0.00">
        <route edges="1fi 1si 1o"/>
    </vehicle>
    <vehicle id="1.57" type="type2" depart="199.50" departLane="random" departPos="0.00">
        <route edges="1fi 1si 1o"/>
    </vehicle>
    <vehicle id="2.57" type="type1" depart="199.50" departLane="random" departPos="0.00">
        <route edges="1fi 1si 1o"/>
    </vehicle>
    <vehicle id="3.57" type="BUS" depart="199.50" departLane="random" departPos="0.00">
        <route edges="1fi 1si 1o"/>
    </vehicle>
    <vehicle id="1.58" type="type2" depart="203.00" departLane="random" departPos="0.00">
        <route edges="1fi 1si 1o"/>
    </vehicle>
    <vehicle id="2.58" type="type1" depart="203.00" departLane="random" departPos="0.00">
        <route edges="1fi 1si 1o"/>
    </vehicle>
    <vehicle id="3.58" type="BUS" depart="203.00" departLane="random" departPos="0.00">
        <route edges="1fi 1si 1o"/>
    </vehicle>
    <vehicle id="1.59" type="type2" depart="206.50" departLane="random" departPos="0.00">
        <route edges="1fi 1si 1o"/>
    </vehicle>
    <vehicle id="2.59" type="type1" depart="206.50" departLane="random" departPos="0.00">
        <route edges="1fi 1si 1o"/>
    </vehicle>
    <vehicle id="3.59" type="BUS" depart="206.50" departLane="random" departPos="0.00">
        <route edges="1fi 1si 1o"/>
    </vehicle>
    <vehicle id="1.60" type="type2" depart="210.00" departLane="random" departPos="0.00">
        <route edges="1fi 1si 1o"/>
    </vehicle>
    <vehicle id="2.60" type="type1" depart="210.00" departLane="random" departPos="0.00">
        <route edges="1fi 1si 1o"/>
    </vehicle>
    <vehicle id="3.60" type="BUS" depart="210.00" departLane="random" departPos="0.00">
        <route edges="1fi 1si 1o"/>
    </vehicle>
    <vehicle id="1.61" type="type2" depart="213.50" departLane="random" departPos="0.00">
        <route edges="1fi 1si 1o"/>
    </vehicle>
    <vehicle id="2.61" type="type1" depart="213.50" departLane="random" departPos="0.00">
        <route edges="1fi 1si 1o"/>
    </vehicle>
    <vehicle id="3.61" type="BUS" depart="213.50" departLane="random" departPos="0.00">
        <route edges="1fi 1si 1o"/>
    </vehicle>
    <vehicle id="1.62" type="type2" depart="217.00" departLane="random" departPos="0.00">
        <route edges="1fi 1si 1o"/>
    </vehicle>
    <vehicle id="2.62" type="type1" depart="217.00" departLane="random" departPos="0.00">
        <route edges="1fi 1si 1o"/>
    </vehicle>
    <vehicle id="3.62" type="BUS" depart="217.00" departLane="random" departPos="0.00">
        <route edges="1fi 1si 1o"/>
    </vehicle>
    <vehicle id="1.63" type="type2" depart="220.50" departLane="random" departPos="0.00">
        <route edges="1fi 1si 1o"/>
    </vehicle>
    <vehicle id="2.63" type="type1" depart="220.50" departLane="random" departPos="0.00">
        <route edges="1fi 1si 1o"/>
    </vehicle>
    <vehicle id="3.63" type="BUS" depart="220.50" departLane="random" departPos="0.00">
        <route edges="1fi 1si 1o"/>
    </vehicle>
    <vehicle id="1.64" type="type2" depart="224.00" departLane="random" departPos="0.00">
        <route edges="1fi 1si 1o"/>
    </vehicle>
    <vehicle id="2.64" type="type1" depart="224.00" departLane="random" departPos="0.00">
        <route edges="1fi 1si 1o"/>
    </vehicle>
    <vehicle id="3.64" type="BUS" depart="224.00" departLane="random" departPos="0.00">
        <route edges="1fi 1si 1o"/>
    </vehicle>
    <vehicle id="1.65" type="type2" depart="227.50" departLane="random" departPos="0.00">
        <route edges="1fi 1si 1o"/>
    </vehicle>
    <vehicle id="2.65" type="type1" depart="227.50" departLane="random" departPos="0.00">
        <route edges="1fi 1si 1o"/>
    </vehicle>
    <vehicle id="3.65" type="BUS" depart="227.50" departLane="random" departPos="0.00">
        <route edges="1fi 1si 1o"/>
    </vehicle>