<?xml version="1.0" encoding="UTF-8"?>

<!-- generated on Thu Aug 21 18:40:19 2014 by SUMO duarouter Version 0.21.0
<?xml version="1.0" encoding="UTF-8"?>

<configuration xmlns:xsi="http://www.w3.org/2001/XMLSchema-instance" xsi:noNamespaceSchemaLocation="http://sumo-sim.org/xsd/duarouterConfiguration.xsd">

    <input>
        <net-file value="data/tope_1.net.xml"/>
        <flow-files value="output/hourly_flows.xml"/>
    </input>

    <output>
        <output-file value="data/routes.rou.xml"/>
    </output>

</configuration>
-->

<routes xmlns:xsi="http://www.w3.org/2001/XMLSchema-instance" xsi:noNamespaceSchemaLocation="http://sumo-sim.org/xsd/routes_file.xsd">
    <vType id="bus" length="20.00" speedDev="0.10" guiShape="bus" color="blue">
        <carFollowing-Krauss accel="0.45" decel="0.35" sigma="0.50"/>
    </vType>
    <vehicle id="f_bus_0.0" type="bus" depart="0.00" departLane="best" departPos="free" departSpeed="max" arrivalPos="max">
        <route edges="inicio tope fin"/>
    </vehicle>
    <vType id="car" length="5.00" speedDev="0.10" color="green">
        <carFollowing-Krauss accel="0.65" decel="0.40" sigma="0.50"/>
    </vType>
    <vehicle id="f_car_0.0" type="car" depart="0.00" departLane="best" departPos="free" departSpeed="max" arrivalPos="max">
        <route edges="inicio tope fin"/>
    </vehicle>
    <vType id="microbus" length="15.00" speedDev="0.10" guiShape="bus" color="red">
        <carFollowing-Krauss accel="0.45" decel="0.35" sigma="0.50"/>
    </vType>
    <vehicle id="f_microbus_0.0" type="microbus" depart="0.00" departLane="best" departPos="free" departSpeed="max" arrivalPos="max">
        <route edges="inicio tope fin"/>
    </vehicle>
    <vType id="suv" length="7.00" speedDev="0.10" color="yellow">
        <carFollowing-Krauss accel="1.60" decel="2.50" sigma="0.50"/>
    </vType>
    <vehicle id="f_suv_0.0" type="suv" depart="0.00" departLane="best" departPos="free" departSpeed="max" arrivalPos="max">
        <route edges="inicio tope fin"/>
    </vehicle>
    <vehicle id="f_car_0.1" type="car" depart="1.51" departLane="best" departPos="free" departSpeed="max" arrivalPos="max">
        <route edges="inicio tope fin"/>
    </vehicle>
    <vehicle id="f_car_0.2" type="car" depart="3.02" departLane="best" departPos="free" departSpeed="max" arrivalPos="max">
        <route edges="inicio tope fin"/>
    </vehicle>
    <vehicle id="f_car_0.3" type="car" depart="4.54" departLane="best" departPos="free" departSpeed="max" arrivalPos="max">
        <route edges="inicio tope fin"/>
    </vehicle>
    <vehicle id="f_car_0.4" type="car" depart="6.05" departLane="best" departPos="free" departSpeed="max" arrivalPos="max">
        <route edges="inicio tope fin"/>
    </vehicle>
    <vehicle id="f_car_0.5" type="car" depart="7.56" departLane="best" departPos="free" departSpeed="max" arrivalPos="max">
        <route edges="inicio tope fin"/>
    </vehicle>
    <vehicle id="f_car_0.6" type="car" depart="9.07" departLane="best" departPos="free" departSpeed="max" arrivalPos="max">
        <route edges="inicio tope fin"/>
    </vehicle>
    <vehicle id="f_car_0.7" type="car" depart="10.58" departLane="best" departPos="free" departSpeed="max" arrivalPos="max">
        <route edges="inicio tope fin"/>
    </vehicle>
    <vehicle id="f_car_0.8" type="car" depart="12.10" departLane="best" departPos="free" departSpeed="max" arrivalPos="max">
        <route edges="inicio tope fin"/>
    </vehicle>
    <vehicle id="f_car_0.9" type="car" depart="13.61" departLane="best" departPos="free" departSpeed="max" arrivalPos="max">
        <route edges="inicio tope fin"/>
    </vehicle>
    <vehicle id="f_car_0.10" type="car" depart="15.12" departLane="best" departPos="free" departSpeed="max" arrivalPos="max">
        <route edges="inicio tope fin"/>
    </vehicle>
    <vehicle id="f_car_0.11" type="car" depart="16.63" departLane="best" departPos="free" departSpeed="max" arrivalPos="max">
        <route edges="inicio tope fin"/>
    </vehicle>
    <vehicle id="f_car_0.12" type="car" depart="18.14" departLane="best" departPos="free" departSpeed="max" arrivalPos="max">
        <route edges="inicio tope fin"/>
    </vehicle>
    <vehicle id="f_car_0.13" type="car" depart="19.66" departLane="best" departPos="free" departSpeed="max" arrivalPos="max">
        <route edges="inicio tope fin"/>
    </vehicle>
    <vehicle id="f_car_0.14" type="car" depart="21.17" departLane="best" departPos="free" departSpeed="max" arrivalPos="max">
        <route edges="inicio tope fin"/>
    </vehicle>
    <vehicle id="f_car_0.15" type="car" depart="22.68" departLane="best" departPos="free" departSpeed="max" arrivalPos="max">
        <route edges="inicio tope fin"/>
    </vehicle>
    <vehicle id="f_car_0.16" type="car" depart="24.19" departLane="best" departPos="free" departSpeed="max" arrivalPos="max">
        <route edges="inicio tope fin"/>
    </vehicle>
    <vehicle id="f_car_0.17" type="car" depart="25.70" departLane="best" departPos="free" departSpeed="max" arrivalPos="max">
        <route edges="inicio tope fin"/>
    </vehicle>
    <vehicle id="f_bus_0.1" type="bus" depart="25.71" departLane="best" departPos="free" departSpeed="max" arrivalPos="max">
        <route edges="inicio tope fin"/>
    </vehicle>
    <vehicle id="f_microbus_0.1" type="microbus" depart="25.71" departLane="best" departPos="free" departSpeed="max" arrivalPos="max">
        <route edges="inicio tope fin"/>
    </vehicle>
    <vehicle id="f_suv_0.1" type="suv" depart="25.71" departLane="best" departPos="free" departSpeed="max" arrivalPos="max">
        <route edges="inicio tope fin"/>
    </vehicle>
    <vehicle id="f_car_0.18" type="car" depart="27.22" departLane="best" departPos="free" departSpeed="max" arrivalPos="max">
        <route edges="inicio tope fin"/>
    </vehicle>
    <vehicle id="f_car_0.19" type="car" depart="28.73" departLane="best" departPos="free" departSpeed="max" arrivalPos="max">
        <route edges="inicio tope fin"/>
    </vehicle>
    <vehicle id="f_car_0.20" type="car" depart="30.24" departLane="best" departPos="free" departSpeed="max" arrivalPos="max">
        <route edges="inicio tope fin"/>
    </vehicle>
    <vehicle id="f_car_0.21" type="car" depart="31.75" departLane="best" departPos="free" departSpeed="max" arrivalPos="max">
        <route edges="inicio tope fin"/>
    </vehicle>
    <vehicle id="f_car_0.22" type="car" depart="33.26" departLane="best" departPos="free" departSpeed="max" arrivalPos="max">
        <route edges="inicio tope fin"/>
    </vehicle>
    <vehicle id="f_car_0.23" type="car" depart="34.78" departLane="best" departPos="free" departSpeed="max" arrivalPos="max">
        <route edges="inicio tope fin"/>
    </vehicle>
    <vehicle id="f_car_0.24" type="car" depart="36.29" departLane="best" departPos="free" departSpeed="max" arrivalPos="max">
        <route edges="inicio tope fin"/>
    </vehicle>
    <vehicle id="f_car_0.25" type="car" depart="37.80" departLane="best" departPos="free" departSpeed="max" arrivalPos="max">
        <route edges="inicio tope fin"/>
    </vehicle>
    <vehicle id="f_car_0.26" type="car" depart="39.31" departLane="best" departPos="free" departSpeed="max" arrivalPos="max">
        <route edges="inicio tope fin"/>
    </vehicle>
    <vehicle id="f_car_0.27" type="car" depart="40.82" departLane="best" departPos="free" departSpeed="max" arrivalPos="max">
        <route edges="inicio tope fin"/>
    </vehicle>
    <vehicle id="f_car_0.28" type="car" depart="42.34" departLane="best" departPos="free" departSpeed="max" arrivalPos="max">
        <route edges="inicio tope fin"/>
    </vehicle>
    <vehicle id="f_car_0.29" type="car" depart="43.85" departLane="best" departPos="free" departSpeed="max" arrivalPos="max">
        <route edges="inicio tope fin"/>
    </vehicle>
    <vehicle id="f_car_0.30" type="car" depart="45.36" departLane="best" departPos="free" departSpeed="max" arrivalPos="max">
        <route edges="inicio tope fin"/>
    </vehicle>
    <vehicle id="f_car_0.31" type="car" depart="46.87" departLane="best" departPos="free" departSpeed="max" arrivalPos="max">
        <route edges="inicio tope fin"/>
    </vehicle>
    <vehicle id="f_car_0.32" type="car" depart="48.38" departLane="best" departPos="free" departSpeed="max" arrivalPos="max">
        <route edges="inicio tope fin"/>
    </vehicle>
    <vehicle id="f_car_0.33" type="car" depart="49.90" departLane="best" departPos="free" departSpeed="max" arrivalPos="max">
        <route edges="inicio tope fin"/>
    </vehicle>
    <vehicle id="f_car_0.34" type="car" depart="51.41" departLane="best" departPos="free" departSpeed="max" arrivalPos="max">
        <route edges="inicio tope fin"/>
    </vehicle>
    <vehicle id="f_bus_0.2" type="bus" depart="51.43" departLane="best" departPos="free" departSpeed="max" arrivalPos="max">
        <route edges="inicio tope fin"/>
    </vehicle>
    <vehicle id="f_microbus_0.2" type="microbus" depart="51.43" departLane="best" departPos="free" departSpeed="max" arrivalPos="max">
        <route edges="inicio tope fin"/>
    </vehicle>
    <vehicle id="f_suv_0.2" type="suv" depart="51.43" departLane="best" departPos="free" departSpeed="max" arrivalPos="max">
        <route edges="inicio tope fin"/>
    </vehicle>
    <vehicle id="f_car_0.35" type="car" depart="52.92" departLane="best" departPos="free" departSpeed="max" arrivalPos="max">
        <route edges="inicio tope fin"/>
    </vehicle>
    <vehicle id="f_car_0.36" type="car" depart="54.43" departLane="best" departPos="free" departSpeed="max" arrivalPos="max">
        <route edges="inicio tope fin"/>
    </vehicle>
    <vehicle id="f_car_0.37" type="car" depart="55.94" departLane="best" departPos="free" departSpeed="max" arrivalPos="max">
        <route edges="inicio tope fin"/>
    </vehicle>
    <vehicle id="f_car_0.38" type="car" depart="57.46" departLane="best" departPos="free" departSpeed="max" arrivalPos="max">
        <route edges="inicio tope fin"/>
    </vehicle>
    <vehicle id="f_car_0.39" type="car" depart="58.97" departLane="best" departPos="free" departSpeed="max" arrivalPos="max">
        <route edges="inicio tope fin"/>
    </vehicle>
    <vehicle id="f_car_0.40" type="car" depart="60.48" departLane="best" departPos="free" departSpeed="max" arrivalPos="max">
        <route edges="inicio tope fin"/>
    </vehicle>
    <vehicle id="f_car_0.41" type="car" depart="61.99" departLane="best" departPos="free" departSpeed="max" arrivalPos="max">
        <route edges="inicio tope fin"/>
    </vehicle>
    <vehicle id="f_car_0.42" type="car" depart="63.50" departLane="best" departPos="free" departSpeed="max" arrivalPos="max">
        <route edges="inicio tope fin"/>
    </vehicle>
    <vehicle id="f_car_0.43" type="car" depart="65.02" departLane="best" departPos="free" departSpeed="max" arrivalPos="max">
        <route edges="inicio tope fin"/>
    </vehicle>
    <vehicle id="f_car_0.44" type="car" depart="66.53" departLane="best" departPos="free" departSpeed="max" arrivalPos="max">
        <route edges="inicio tope fin"/>
    </vehicle>
    <vehicle id="f_car_0.45" type="car" depart="68.04" departLane="best" departPos="free" departSpeed="max" arrivalPos="max">
        <route edges="inicio tope fin"/>
    </vehicle>
    <vehicle id="f_car_0.46" type="car" depart="69.55" departLane="best" departPos="free" departSpeed="max" arrivalPos="max">
        <route edges="inicio tope fin"/>
    </vehicle>
    <vehicle id="f_car_0.47" type="car" depart="71.06" departLane="best" departPos="free" departSpeed="max" arrivalPos="max">
        <route edges="inicio tope fin"/>
    </vehicle>
    <vehicle id="f_car_0.48" type="car" depart="72.58" departLane="best" departPos="free" departSpeed="max" arrivalPos="max">
        <route edges="inicio tope fin"/>
    </vehicle>
    <vehicle id="f_car_0.49" type="car" depart="74.09" departLane="best" departPos="free" departSpeed="max" arrivalPos="max">
        <route edges="inicio tope fin"/>
    </vehicle>
    <vehicle id="f_car_0.50" type="car" depart="75.60" departLane="best" departPos="free" departSpeed="max" arrivalPos="max">
        <route edges="inicio tope fin"/>
    </vehicle>
    <vehicle id="f_car_0.51" type="car" depart="77.11" departLane="best" departPos="free" departSpeed="max" arrivalPos="max">
        <route edges="inicio tope fin"/>
    </vehicle>
    <vehicle id="f_bus_0.3" type="bus" depart="77.14" departLane="best" departPos="free" departSpeed="max" arrivalPos="max">
        <route edges="inicio tope fin"/>
    </vehicle>
    <vehicle id="f_microbus_0.3" type="microbus" depart="77.14" departLane="best" departPos="free" departSpeed="max" arrivalPos="max">
        <route edges="inicio tope fin"/>
    </vehicle>
    <vehicle id="f_suv_0.3" type="suv" depart="77.14" departLane="best" departPos="free" departSpeed="max" arrivalPos="max">
        <route edges="inicio tope fin"/>
    </vehicle>
    <vehicle id="f_car_0.52" type="car" depart="78.62" departLane="best" departPos="free" departSpeed="max" arrivalPos="max">
        <route edges="inicio tope fin"/>
    </vehicle>
    <vehicle id="f_car_0.53" type="car" depart="80.14" departLane="best" departPos="free" departSpeed="max" arrivalPos="max">
        <route edges="inicio tope fin"/>
    </vehicle>
    <vehicle id="f_car_0.54" type="car" depart="81.65" departLane="best" departPos="free" departSpeed="max" arrivalPos="max">
        <route edges="inicio tope fin"/>
    </vehicle>
    <vehicle id="f_car_0.55" type="car" depart="83.16" departLane="best" departPos="free" departSpeed="max" arrivalPos="max">
        <route edges="inicio tope fin"/>
    </vehicle>
    <vehicle id="f_car_0.56" type="car" depart="84.67" departLane="best" departPos="free" departSpeed="max" arrivalPos="max">
        <route edges="inicio tope fin"/>
    </vehicle>
    <vehicle id="f_car_0.57" type="car" depart="86.18" departLane="best" departPos="free" departSpeed="max" arrivalPos="max">
        <route edges="inicio tope fin"/>
    </vehicle>
    <vehicle id="f_car_0.58" type="car" depart="87.70" departLane="best" departPos="free" departSpeed="max" arrivalPos="max">
        <route edges="inicio tope fin"/>
    </vehicle>
    <vehicle id="f_car_0.59" type="car" depart="89.21" departLane="best" departPos="free" departSpeed="max" arrivalPos="max">
        <route edges="inicio tope fin"/>
    </vehicle>
    <vehicle id="f_car_0.60" type="car" depart="90.72" departLane="best" departPos="free" departSpeed="max" arrivalPos="max">
        <route edges="inicio tope fin"/>
    </vehicle>
    <vehicle id="f_car_0.61" type="car" depart="92.23" departLane="best" departPos="free" departSpeed="max" arrivalPos="max">
        <route edges="inicio tope fin"/>
    </vehicle>
    <vehicle id="f_car_0.62" type="car" depart="93.74" departLane="best" departPos="free" departSpeed="max" arrivalPos="max">
        <route edges="inicio tope fin"/>
    </vehicle>
    <vehicle id="f_car_0.63" type="car" depart="95.26" departLane="best" departPos="free" departSpeed="max" arrivalPos="max">
        <route edges="inicio tope fin"/>
    </vehicle>
    <vehicle id="f_car_0.64" type="car" depart="96.77" departLane="best" departPos="free" departSpeed="max" arrivalPos="max">
        <route edges="inicio tope fin"/>
    </vehicle>
    <vehicle id="f_car_0.65" type="car" depart="98.28" departLane="best" departPos="free" departSpeed="max" arrivalPos="max">
        <route edges="inicio tope fin"/>
    </vehicle>
    <vehicle id="f_car_0.66" type="car" depart="99.79" departLane="best" departPos="free" departSpeed="max" arrivalPos="max">
        <route edges="inicio tope fin"/>
    </vehicle>
    <vehicle id="f_car_0.67" type="car" depart="101.30" departLane="best" departPos="free" departSpeed="max" arrivalPos="max">
        <route edges="inicio tope fin"/>
    </vehicle>
    <vehicle id="f_car_0.68" type="car" depart="102.82" departLane="best" departPos="free" departSpeed="max" arrivalPos="max">
        <route edges="inicio tope fin"/>
    </vehicle>
    <vehicle id="f_bus_0.4" type="bus" depart="102.86" departLane="best" departPos="free" departSpeed="max" arrivalPos="max">
        <route edges="inicio tope fin"/>
    </vehicle>
    <vehicle id="f_microbus_0.4" type="microbus" depart="102.86" departLane="best" departPos="free" departSpeed="max" arrivalPos="max">
        <route edges="inicio tope fin"/>
    </vehicle>
    <vehicle id="f_suv_0.4" type="suv" depart="102.86" departLane="best" departPos="free" departSpeed="max" arrivalPos="max">
        <route edges="inicio tope fin"/>
    </vehicle>
    <vehicle id="f_car_0.69" type="car" depart="104.33" departLane="best" departPos="free" departSpeed="max" arrivalPos="max">
        <route edges="inicio tope fin"/>
    </vehicle>
    <vehicle id="f_car_0.70" type="car" depart="105.84" departLane="best" departPos="free" departSpeed="max" arrivalPos="max">
        <route edges="inicio tope fin"/>
    </vehicle>
    <vehicle id="f_car_0.71" type="car" depart="107.35" departLane="best" departPos="free" departSpeed="max" arrivalPos="max">
        <route edges="inicio tope fin"/>
    </vehicle>
    <vehicle id="f_car_0.72" type="car" depart="108.86" departLane="best" departPos="free" departSpeed="max" arrivalPos="max">
        <route edges="inicio tope fin"/>
    </vehicle>
    <vehicle id="f_car_0.73" type="car" depart="110.38" departLane="best" departPos="free" departSpeed="max" arrivalPos="max">
        <route edges="inicio tope fin"/>
    </vehicle>
    <vehicle id="f_car_0.74" type="car" depart="111.89" departLane="best" departPos="free" departSpeed="max" arrivalPos="max">
        <route edges="inicio tope fin"/>
    </vehicle>
    <vehicle id="f_car_0.75" type="car" depart="113.40" departLane="best" departPos="free" departSpeed="max" arrivalPos="max">
        <route edges="inicio tope fin"/>
    </vehicle>
    <vehicle id="f_car_0.76" type="car" depart="114.91" departLane="best" departPos="free" departSpeed="max" arrivalPos="max">
        <route edges="inicio tope fin"/>
    </vehicle>
    <vehicle id="f_car_0.77" type="car" depart="116.42" departLane="best" departPos="free" departSpeed="max" arrivalPos="max">
        <route edges="inicio tope fin"/>
    </vehicle>
    <vehicle id="f_car_0.78" type="car" depart="117.94" departLane="best" departPos="free" departSpeed="max" arrivalPos="max">
        <route edges="inicio tope fin"/>
    </vehicle>
    <vehicle id="f_car_0.79" type="car" depart="119.45" departLane="best" departPos="free" departSpeed="max" arrivalPos="max">
        <route edges="inicio tope fin"/>
    </vehicle>
    <vehicle id="f_car_0.80" type="car" depart="120.96" departLane="best" departPos="free" departSpeed="max" arrivalPos="max">
        <route edges="inicio tope fin"/>
    </vehicle>
    <vehicle id="f_car_0.81" type="car" depart="122.47" departLane="best" departPos="free" departSpeed="max" arrivalPos="max">
        <route edges="inicio tope fin"/>
    </vehicle>
    <vehicle id="f_car_0.82" type="car" depart="123.98" departLane="best" departPos="free" departSpeed="max" arrivalPos="max">
        <route edges="inicio tope fin"/>
    </vehicle>
    <vehicle id="f_car_0.83" type="car" depart="125.50" departLane="best" departPos="free" departSpeed="max" arrivalPos="max">
        <route edges="inicio tope fin"/>
    </vehicle>
    <vehicle id="f_car_0.84" type="car" depart="127.01" departLane="best" departPos="free" departSpeed="max" arrivalPos="max">
        <route edges="inicio tope fin"/>
    </vehicle>
    <vehicle id="f_car_0.85" type="car" depart="128.52" departLane="best" departPos="free" departSpeed="max" arrivalPos="max">
        <route edges="inicio tope fin"/>
    </vehicle>
    <vehicle id="f_bus_0.5" type="bus" depart="128.57" departLane="best" departPos="free" departSpeed="max" arrivalPos="max">
        <route edges="inicio tope fin"/>
    </vehicle>
    <vehicle id="f_microbus_0.5" type="microbus" depart="128.57" departLane="best" departPos="free" departSpeed="max" arrivalPos="max">
        <route edges="inicio tope fin"/>
    </vehicle>
    <vehicle id="f_suv_0.5" type="suv" depart="128.57" departLane="best" departPos="free" departSpeed="max" arrivalPos="max">
        <route edges="inicio tope fin"/>
    </vehicle>
    <vehicle id="f_car_0.86" type="car" depart="130.03" departLane="best" departPos="free" departSpeed="max" arrivalPos="max">
        <route edges="inicio tope fin"/>
    </vehicle>
    <vehicle id="f_car_0.87" type="car" depart="131.54" departLane="best" departPos="free" departSpeed="max" arrivalPos="max">
        <route edges="inicio tope fin"/>
    </vehicle>
    <vehicle id="f_car_0.88" type="car" depart="133.06" departLane="best" departPos="free" departSpeed="max" arrivalPos="max">
        <route edges="inicio tope fin"/>
    </vehicle>
    <vehicle id="f_car_0.89" type="car" depart="134.57" departLane="best" departPos="free" departSpeed="max" arrivalPos="max">
        <route edges="inicio tope fin"/>
    </vehicle>
    <vehicle id="f_car_0.90" type="car" depart="136.08" departLane="best" departPos="free" departSpeed="max" arrivalPos="max">
        <route edges="inicio tope fin"/>
    </vehicle>
    <vehicle id="f_car_0.91" type="car" depart="137.59" departLane="best" departPos="free" departSpeed="max" arrivalPos="max">
        <route edges="inicio tope fin"/>
    </vehicle>
    <vehicle id="f_car_0.92" type="car" depart="139.10" departLane="best" departPos="free" departSpeed="max" arrivalPos="max">
        <route edges="inicio tope fin"/>
    </vehicle>
    <vehicle id="f_car_0.93" type="car" depart="140.62" departLane="best" departPos="free" departSpeed="max" arrivalPos="max">
        <route edges="inicio tope fin"/>
    </vehicle>
    <vehicle id="f_car_0.94" type="car" depart="142.13" departLane="best" departPos="free" departSpeed="max" arrivalPos="max">
        <route edges="inicio tope fin"/>
    </vehicle>
    <vehicle id="f_car_0.95" type="car" depart="143.64" departLane="best" departPos="free" departSpeed="max" arrivalPos="max">
        <route edges="inicio tope fin"/>
    </vehicle>
    <vehicle id="f_car_0.96" type="car" depart="145.15" departLane="best" departPos="free" departSpeed="max" arrivalPos="max">
        <route edges="inicio tope fin"/>
    </vehicle>
    <vehicle id="f_car_0.97" type="car" depart="146.66" departLane="best" departPos="free" departSpeed="max" arrivalPos="max">
        <route edges="inicio tope fin"/>
    </vehicle>
    <vehicle id="f_car_0.98" type="car" depart="148.18" departLane="best" departPos="free" departSpeed="max" arrivalPos="max">
        <route edges="inicio tope fin"/>
    </vehicle>
    <vehicle id="f_car_0.99" type="car" depart="149.69" departLane="best" departPos="free" departSpeed="max" arrivalPos="max">
        <route edges="inicio tope fin"/>
    </vehicle>
    <vehicle id="f_car_0.100" type="car" depart="151.20" departLane="best" departPos="free" departSpeed="max" arrivalPos="max">
        <route edges="inicio tope fin"/>
    </vehicle>
    <vehicle id="f_car_0.101" type="car" depart="152.71" departLane="best" departPos="free" departSpeed="max" arrivalPos="max">
        <route edges="inicio tope fin"/>
    </vehicle>
    <vehicle id="f_car_0.102" type="car" depart="154.22" departLane="best" departPos="free" departSpeed="max" arrivalPos="max">
        <route edges="inicio tope fin"/>
    </vehicle>
    <vehicle id="f_bus_0.6" type="bus" depart="154.28" departLane="best" departPos="free" departSpeed="max" arrivalPos="max">
        <route edges="inicio tope fin"/>
    </vehicle>
    <vehicle id="f_microbus_0.6" type="microbus" depart="154.28" departLane="best" departPos="free" departSpeed="max" arrivalPos="max">
        <route edges="inicio tope fin"/>
    </vehicle>
    <vehicle id="f_suv_0.6" type="suv" depart="154.28" departLane="best" departPos="free" departSpeed="max" arrivalPos="max">
        <route edges="inicio tope fin"/>
    </vehicle>
    <vehicle id="f_car_0.103" type="car" depart="155.74" departLane="best" departPos="free" departSpeed="max" arrivalPos="max">
        <route edges="inicio tope fin"/>
    </vehicle>
    <vehicle id="f_car_0.104" type="car" depart="157.25" departLane="best" departPos="free" departSpeed="max" arrivalPos="max">
        <route edges="inicio tope fin"/>
    </vehicle>
    <vehicle id="f_car_0.105" type="car" depart="158.76" departLane="best" departPos="free" departSpeed="max" arrivalPos="max">
        <route edges="inicio tope fin"/>
    </vehicle>
    <vehicle id="f_car_0.106" type="car" depart="160.27" departLane="best" departPos="free" departSpeed="max" arrivalPos="max">
        <route edges="inicio tope fin"/>
    </vehicle>
    <vehicle id="f_car_0.107" type="car" depart="161.78" departLane="best" departPos="free" departSpeed="max" arrivalPos="max">
        <route edges="inicio tope fin"/>
    </vehicle>
    <vehicle id="f_car_0.108" type="car" depart="163.30" departLane="best" departPos="free" departSpeed="max" arrivalPos="max">
        <route edges="inicio tope fin"/>
    </vehicle>
    <vehicle id="f_car_0.109" type="car" depart="164.81" departLane="best" departPos="free" departSpeed="max" arrivalPos="max">
        <route edges="inicio tope fin"/>
    </vehicle>
    <vehicle id="f_car_0.110" type="car" depart="166.32" departLane="best" departPos="free" departSpeed="max" arrivalPos="max">
        <route edges="inicio tope fin"/>
    </vehicle>
    <vehicle id="f_car_0.111" type="car" depart="167.83" departLane="best" departPos="free" departSpeed="max" arrivalPos="max">
        <route edges="inicio tope fin"/>
    </vehicle>
    <vehicle id="f_car_0.112" type="car" depart="169.34" departLane="best" departPos="free" departSpeed="max" arrivalPos="max">
        <route edges="inicio tope fin"/>
    </vehicle>
    <vehicle id="f_car_0.113" type="car" depart="170.86" departLane="best" departPos="free" departSpeed="max" arrivalPos="max">
        <route edges="inicio tope fin"/>
    </vehicle>
    <vehicle id="f_car_0.114" type="car" depart="172.37" departLane="best" departPos="free" departSpeed="max" arrivalPos="max">
        <route edges="inicio tope fin"/>
    </vehicle>
    <vehicle id="f_car_0.115" type="car" depart="173.88" departLane="best" departPos="free" departSpeed="max" arrivalPos="max">
        <route edges="inicio tope fin"/>
    </vehicle>
    <vehicle id="f_car_0.116" type="car" depart="175.39" departLane="best" departPos="free" departSpeed="max" arrivalPos="max">
        <route edges="inicio tope fin"/>
    </vehicle>
    <vehicle id="f_car_0.117" type="car" depart="176.90" departLane="best" departPos="free" departSpeed="max" arrivalPos="max">
        <route edges="inicio tope fin"/>
    </vehicle>
    <vehicle id="f_car_0.118" type="car" depart="178.42" departLane="best" departPos="free" departSpeed="max" arrivalPos="max">
        <route edges="inicio tope fin"/>
    </vehicle>
    <vehicle id="f_car_0.119" type="car" depart="179.93" departLane="best" departPos="free" departSpeed="max" arrivalPos="max">
        <route edges="inicio tope fin"/>
    </vehicle>
    <vehicle id="f_bus_0.7" type="bus" depart="180.00" departLane="best" departPos="free" departSpeed="max" arrivalPos="max">
        <route edges="inicio tope fin"/>
    </vehicle>
    <vehicle id="f_microbus_0.7" type="microbus" depart="180.00" departLane="best" departPos="free" departSpeed="max" arrivalPos="max">
        <route edges="inicio tope fin"/>
    </vehicle>
    <vehicle id="f_suv_0.7" type="suv" depart="180.00" departLane="best" departPos="free" departSpeed="max" arrivalPos="max">
        <route edges="inicio tope fin"/>
    </vehicle>
    <vehicle id="f_car_0.120" type="car" depart="181.44" departLane="best" departPos="free" departSpeed="max" arrivalPos="max">
        <route edges="inicio tope fin"/>
    </vehicle>
    <vehicle id="f_car_0.121" type="car" depart="182.95" departLane="best" departPos="free" departSpeed="max" arrivalPos="max">
        <route edges="inicio tope fin"/>
    </vehicle>
    <vehicle id="f_car_0.122" type="car" depart="184.46" departLane="best" departPos="free" departSpeed="max" arrivalPos="max">
        <route edges="inicio tope fin"/>
    </vehicle>
    <vehicle id="f_car_0.123" type="car" depart="185.98" departLane="best" departPos="free" departSpeed="max" arrivalPos="max">
        <route edges="inicio tope fin"/>
    </vehicle>
    <vehicle id="f_car_0.124" type="car" depart="187.49" departLane="best" departPos="free" departSpeed="max" arrivalPos="max">
        <route edges="inicio tope fin"/>
    </vehicle>
    <vehicle id="f_car_0.125" type="car" depart="189.00" departLane="best" departPos="free" departSpeed="max" arrivalPos="max">
        <route edges="inicio tope fin"/>
    </vehicle>
    <vehicle id="f_car_0.126" type="car" depart="190.51" departLane="best" departPos="free" departSpeed="max" arrivalPos="max">
        <route edges="inicio tope fin"/>
    </vehicle>
    <vehicle id="f_car_0.127" type="car" depart="192.02" departLane="best" departPos="free" departSpeed="max" arrivalPos="max">
        <route edges="inicio tope fin"/>
    </vehicle>
    <vehicle id="f_car_0.128" type="car" depart="193.54" departLane="best" departPos="free" departSpeed="max" arrivalPos="max">
        <route edges="inicio tope fin"/>
    </vehicle>
    <vehicle id="f_car_0.129" type="car" depart="195.05" departLane="best" departPos="free" departSpeed="max" arrivalPos="max">
        <route edges="inicio tope fin"/>
    </vehicle>
    <vehicle id="f_car_0.130" type="car" depart="196.56" departLane="best" departPos="free" departSpeed="max" arrivalPos="max">
        <route edges="inicio tope fin"/>
    </vehicle>
    <vehicle id="f_car_0.131" type="car" depart="198.07" departLane="best" departPos="free" departSpeed="max" arrivalPos="max">
        <route edges="inicio tope fin"/>
    </vehicle>
    <vehicle id="f_car_0.132" type="car" depart="199.58" departLane="best" departPos="free" departSpeed="max" arrivalPos="max">