<?xml version="1.0" encoding="UTF-8"?>

<!-- generated on 10/10/13 11:31:11 by SUMO netconvert Version 0.18.0
<?xml version="1.0" encoding="UTF-8"?>

<configuration xmlns:xsi="http://www.w3.org/2001/XMLSchema-instance" xsi:noNamespaceSchemaLocation="http://sumo.sf.net/xsd/netconvertConfiguration.xsd">

    <input>
        <node-files value="adhoc.nod.xml"/>
        <edge-files value="adhoc.edge.xml"/>
    </input>

    <output>
        <output-file value="adhoc.net.xml"/>
    </output>

</configuration>
-->

<net version="0.13" xmlns:xsi="http://www.w3.org/2001/XMLSchema-instance" xsi:noNamespaceSchemaLocation="http://sumo.sf.net/xsd/net_file.xsd">

    <location netOffset="0.00,0.00" convBoundary="0.00,0.00,1250.00,0.00" origBoundary="0.00,0.00,1250.00,0.00" projParameter="!"/>

    <edge id=":n2_0" function="internal">
        <lane id=":n2_0_0" index="0" speed="7.00" length="0.10" shape="1000.00,-8.25 1000.00,-8.25"/>
    </edge>
    <edge id=":n2_1" function="internal">
        <lane id=":n2_1_0" index="0" speed="7.00" length="0.10" shape="1000.00,-4.95 1000.00,-4.95"/>
    </edge>
    <edge id=":n2_2" function="internal">
        <lane id=":n2_2_0" index="0" speed="7.00" length="0.10" shape="1000.00,-1.65 1000.00,-1.65"/>
    </edge>
    <edge id=":n3_0" function="internal">
        <lane id=":n3_0_0" index="0" speed="7.00" length="0.10" shape="1005.00,-8.25 1005.00,-8.25"/>
    </edge>
    <edge id=":n3_1" function="internal">
        <lane id=":n3_1_0" index="0" speed="7.00" length="0.10" shape="1005.00,-4.95 1005.00,-4.95"/>
    </edge>
    <edge id=":n3_2" function="internal">
        <lane id=":n3_2_0" index="0" speed="7.00" length="0.10" shape="1005.00,-1.65 1005.00,-1.65"/>
    </edge>

    <edge id="1fi" from="n1" to="n2" priority="2">
        <lane id="1fi_0" index="0" speed="11.11" length="1000.00" shape="0.00,-8.25 1000.00,-8.25"/>
        <lane id="1fi_1" index="1" speed="11.11" length="1000.00" shape="0.00,-4.95 1000.00,-4.95"/>
        <lane id="1fi_2" index="2" speed="11.11" length="1000.00" shape="0.00,-1.65 1000.00,-1.65"/>
    </edge>
    <edge id="1o" from="n3" to="n4" priority="1">
        <lane id="1o_0" index="0" speed="11.11" length="245.00" shape="1005.00,-8.25 1250.00,-8.25"/>
        <lane id="1o_1" index="1" speed="11.11" length="245.00" shape="1005.00,-4.95 1250.00,-4.95"/>
        <lane id="1o_2" index="2" speed="11.11" length="245.00" shape="1005.00,-1.65 1250.00,-1.65"/>
    </edge>
    <edge id="1si" from="n2" to="n3" priority="3">
        <lane id="1si_0" index="0" speed="2.89" length="5.00" shape="1000.00,-8.25 1005.00,-8.25"/>
        <lane id="1si_1" index="1" speed="2.89" length="5.00" shape="1000.00,-4.95 1005.00,-4.95"/>
        <lane id="1si_2" index="2" speed="2.89" length="5.00" shape="1000.00,-1.65 1005.00,-1.65"/>
    </edge>

    <junction id="n1" type="unregulated" x="0.00" y="0.00" incLanes="" intLanes="" shape="-0.00,-0.05 -0.00,-9.85"/>
    <junction id="n2" type="priority" x="1000.00" y="0.00" incLanes="1fi_0 1fi_1 1fi_2" intLanes=":n2_0_0 :n2_1_0 :n2_2_0" shape="1000.00,-0.05 1000.00,-9.85 1000.00,-0.05">
        <request index="0" response="000" foes="000" cont="0"/>
        <request index="1" response="000" foes="000" cont="0"/>
        <request index="2" response="000" foes="000" cont="0"/>
    </junction>
    <junction id="n3" type="priority" x="1005.00" y="0.00" incLanes="1si_0 1si_1 1si_2" intLanes=":n3_0_0 :n3_1_0 :n3_2_0" shape="1005.00,-0.05 1005.00,-9.85 1005.00,-0.05">
        <request index="0" response="000" foes="000" cont="0"/>
        <request index="1" response="000" foes="000" cont="0"/>
        <request index="2" response="000" foes="000" cont="0"/>
    </junction>
    <junction id="n4" type="unregulated" x="1250.00" y="0.00" incLanes="1o_0 1o_1 1o_2" intLanes="" shape="1250.00,-9.85 1250.00,-0.05"/>

    <connection from="1fi" to="1si" fromLane="0" toLane="0" via=":n2_0_0" dir="s" state="M"/>
    <connection from="1fi" to="1si" fromLane="1" toLane="1" via=":n2_1_0" dir="s" state="M"/>
    <connection from="1fi" to="1si" fromLane="2" toLane="2" via=":n2_2_0" dir="s" state="M"/>
    <connection from="1si" to="1o" fromLane="0" toLane="0" via=":n3_0_0" dir="s" state="M"/>
    <connection from="1si" to="1o" fromLane="1" toLane="1" via=":n3_1_0" dir="s" state="M"/>
    <connection from="1si" to="1o" fromLane="2" toLane="2" via=":n3_2_0" dir="s" state="M"/>

    <connection from=":n2_0" to="1si" fromLane="0" toLane="0" dir="s" state="M"/>
    <connection from=":n2_1" to="1si" fromLane="0" toLane="1" dir="s" state="M"/>
    <connection from=":n2_2" to="1si" fromLane="0" toLane="2" dir="s" state="M"/>
    <connection from=":n3_0" to="1o" fromLane="0" toLane="0" dir="s" state="M"/>
    <connection from=":n3_1" to="1o" fromLane="0" toLane="1" dir="s" state="M"/>
    <connection from=":n3_2" to="1o" fromLane="0" toLane="2" dir="s" state="M"/>

</net>
