<flows><vType color="1,0,0" guiShape="bus" id="microbus" length="15" maxspeed="25" speedDev="0.1"><carFollowing-Krauss accel="0.2" decel="0.6" sigma="0.7" /></vType><vType color="0,1,0" id="car" length="5" maxspeed="120" speedDev="0.1"><carFollowing-Krauss accel="0.5" decel="1.8" sigma="0.7" /></vType><vType color="0,0,1" guiShape="bus" id="bus" length="20" maxspeed="70" speedDev="0.1"><carFollowing-Krauss accel="0.3" decel="1.2" sigma="0.7" /></vType><interval begin="0" end="120"><flow arrivalPos="max" departLane="best" departPos="free" departSpeed="max" from="entrance" id="f_car" number="126" to="exit" type="car" /></interval><interval begin="0" end="120"><flow arrivalPos="max" departLane="best" departPos="free" departSpeed="max" from="entrance" id="f_bus" number="27" to="exit" type="bus" /></interval><interval begin="0" end="120"><flow arrivalPos="max" departLane="best" departPos="free" departSpeed="max" from="entrance" id="f_microbus" number="27" to="exit" type="microbus" /></interval></flows>