<flows><vType color="0,0,1" guiShape="bus" id="bus" length="20" maxspeed="70" speedDev="0.1"><carFollowing-Krauss accel="0.45" decel="0.28" sigma="0.5" /></vType><vType color="0,1,0" id="car" length="5" maxspeed="120" speedDev="0.1"><carFollowing-Krauss accel="0.65" decel="0.4" sigma="0.5" /></vType><interval begin="0" end="3600"><flow arrivalPos="max" departLane="best" departPos="free" departSpeed="max" from="inicio" id="f_car" number="128" to="fin" type="car" /></interval><interval begin="0" end="3600"><flow arrivalPos="max" departLane="best" departPos="free" departSpeed="max" from="inicio" id="f_bus" number="23" to="fin" type="bus" /></interval></flows>