<routes xmlns:xsi="http://www.w3.org/2001/XMLSchema-instance" xsi:noNamespaceSchemaLocation="http://sumo.dlr.de/xsd/routes_file.xsd">
    <vType id="p0" vClass="pedestrian" width="0.7" length="0.5" minGap="0.2" maxSpeed="0.97" guiShape="pedestrian"/>
    <person id="p0" type="p0" depart="6">
        <walk edges="-32995#2.229 -32995#2.240 -32995#2.251 -32995#2.264 -32995#2.276 -32995#2.287 -32995#2.299 -32995#2.312 -32995#2.323.0 -32995#2.323.5 -32995#2.323.10 -32995#2.323.19 -32995#2.323.24 -32995#2.323.29 -32995#2.323.34 -32995#2.323.40 -32995#2.323.46 -32995#2.389.0 -32995#2.389.6 -32995#2.389.11 -32995#2.389.16 -32995#2.389.22 -32995#2.389.28 -32995#2.389.33 -32995#2.389.43 -32995#2.389.53 -32995#2.389.63" departPos="0" arrivalPos="-1"/>
    </person>
    <vType id="p1" vClass="pedestrian" width="0.7" length="0.5" minGap="0.2" maxSpeed="0.97" guiShape="pedestrian"/>
    <person id="p1" type="p1" depart="11">
        <walk edges="-32995#2.229 -32995#2.240 -32995#2.251 -32995#2.264 -32995#2.276 -32995#2.287 -32995#2.299 -32995#2.312 -32995#2.323.0 -32995#2.323.5 -32995#2.323.10 -32995#2.323.19 -32995#2.323.24 -32995#2.323.29 -32995#2.323.34 -32995#2.323.40 -32995#2.323.46 -32995#2.389.0 -32995#2.389.6 -32995#2.389.11 -32995#2.389.16 -32995#2.389.22 -32995#2.389.28 -32995#2.389.33 -32995#2.389.43 -32995#2.389.53 -32995#2.389.63" departPos="0" arrivalPos="-1"/>
    </person>
    <vType id="p2" vClass="pedestrian" width="0.7" length="0.5" minGap="0.2" maxSpeed="0.97" guiShape="pedestrian"/>
    <person id="p2" type="p2" depart="13">
        <walk edges="-32995#2.229 -32995#2.240 -32995#2.251 -32995#2.264 -32995#2.276 -32995#2.287 -32995#2.299 -32995#2.312 -32995#2.323.0 -32995#2.323.5 -32995#2.323.10 -32995#2.323.19 -32995#2.323.24 -32995#2.323.29 -32995#2.323.34 -32995#2.323.40 -32995#2.323.46 -32995#2.389.0 -32995#2.389.6 -32995#2.389.11 -32995#2.389.16 -32995#2.389.22 -32995#2.389.28 -32995#2.389.33 -32995#2.389.43 -32995#2.389.53 -32995#2.389.63" departPos="0" arrivalPos="-1"/>
    </person>
    <vType id="p3" vClass="pedestrian" width="0.7" length="0.5" minGap="0.2" maxSpeed="0.97" guiShape="pedestrian"/>
    <person id="p3" type="p3" depart="18">
        <walk edges="-32995#2.229 -32995#2.240 -32995#2.251 -32995#2.264 -32995#2.276 -32995#2.287 -32995#2.299 -32995#2.312 -32995#2.323.0 -32995#2.323.5 -32995#2.323.10 -32995#2.323.19 -32995#2.323.24 -32995#2.323.29 -32995#2.323.34 -32995#2.323.40 -32995#2.323.46 -32995#2.389.0 -32995#2.389.6 -32995#2.389.11 -32995#2.389.16 -32995#2.389.22 -32995#2.389.28 -32995#2.389.33 -32995#2.389.43 -32995#2.389.53 -32995#2.389.63" departPos="0" arrivalPos="-1"/>
    </person>
    <vType id="p4" vClass="pedestrian" width="0.7" length="0.5" minGap="0.2" maxSpeed="0.97" guiShape="pedestrian"/>
    <person id="p4" type="p4" depart="23">
        <walk edges="-32995#2.229 -32995#2.240 -32995#2.251 -32995#2.264 -32995#2.276 -32995#2.287 -32995#2.299 -32995#2.312 -32995#2.323.0 -32995#2.323.5 -32995#2.323.10 -32995#2.323.19 -32995#2.323.24 -32995#2.323.29 -32995#2.323.34 -32995#2.323.40 -32995#2.323.46 -32995#2.389.0 -32995#2.389.6 -32995#2.389.11 -32995#2.389.16 -32995#2.389.22 -32995#2.389.28 -32995#2.389.33 -32995#2.389.43 -32995#2.389.53 -32995#2.389.63" departPos="0" arrivalPos="-1"/>
    </person>
    <vType id="p5" vClass="pedestrian" width="0.7" length="0.5" minGap="0.2" maxSpeed="0.97" guiShape="pedestrian"/>
    <person id="p5" type="p5" depart="42">
        <walk edges="-32995#2.229 -32995#2.240 -32995#2.251 -32995#2.264 -32995#2.276 -32995#2.287 -32995#2.299 -32995#2.312 -32995#2.323.0 -32995#2.323.5 -32995#2.323.10 -32995#2.323.19 -32995#2.323.24 -32995#2.323.29 -32995#2.323.34 -32995#2.323.40 -32995#2.323.46 -32995#2.389.0 -32995#2.389.6 -32995#2.389.11 -32995#2.389.16 -32995#2.389.22 -32995#2.389.28 -32995#2.389.33 -32995#2.389.43 -32995#2.389.53 -32995#2.389.63" departPos="0" arrivalPos="-1"/>
    </person>
    <vType id="p6" vClass="pedestrian" width="0.7" length="0.5" minGap="0.2" maxSpeed="0.97" guiShape="pedestrian"/>
    <person id="p6" type="p6" depart="46">
        <walk edges="-32995#2.229 -32995#2.240 -32995#2.251 -32995#2.264 -32995#2.276 -32995#2.287 -32995#2.299 -32995#2.312 -32995#2.323.0 -32995#2.323.5 -32995#2.323.10 -32995#2.323.19 -32995#2.323.24 -32995#2.323.29 -32995#2.323.34 -32995#2.323.40 -32995#2.323.46 -32995#2.389.0 -32995#2.389.6 -32995#2.389.11 -32995#2.389.16 -32995#2.389.22 -32995#2.389.28 -32995#2.389.33 -32995#2.389.43 -32995#2.389.53 -32995#2.389.63" departPos="0" arrivalPos="-1"/>
    </person>
    <vType id="p7" vClass="pedestrian" width="0.7" length="0.5" minGap="0.2" maxSpeed="0.97" guiShape="pedestrian"/>
    <person id="p7" type="p7" depart="47">
        <walk edges="-32995#2.229 -32995#2.240 -32995#2.251 -32995#2.264 -32995#2.276 -32995#2.287 -32995#2.299 -32995#2.312 -32995#2.323.0 -32995#2.323.5 -32995#2.323.10 -32995#2.323.19 -32995#2.323.24 -32995#2.323.29 -32995#2.323.34 -32995#2.323.40 -32995#2.323.46 -32995#2.389.0 -32995#2.389.6 -32995#2.389.11 -32995#2.389.16 -32995#2.389.22 -32995#2.389.28 -32995#2.389.33 -32995#2.389.43 -32995#2.389.53 -32995#2.389.63" departPos="0" arrivalPos="-1"/>
    </person>
    <vType id="p8" vClass="pedestrian" width="0.7" length="0.5" minGap="0.2" maxSpeed="0.97" guiShape="pedestrian"/>
    <person id="p8" type="p8" depart="49">
        <walk edges="-32995#2.229 -32995#2.240 -32995#2.251 -32995#2.264 -32995#2.276 -32995#2.287 -32995#2.299 -32995#2.312 -32995#2.323.0 -32995#2.323.5 -32995#2.323.10 -32995#2.323.19 -32995#2.323.24 -32995#2.323.29 -32995#2.323.34 -32995#2.323.40 -32995#2.323.46 -32995#2.389.0 -32995#2.389.6 -32995#2.389.11 -32995#2.389.16 -32995#2.389.22 -32995#2.389.28 -32995#2.389.33 -32995#2.389.43 -32995#2.389.53 -32995#2.389.63" departPos="0" arrivalPos="-1"/>
    </person>
    <vType id="p9" vClass="pedestrian" width="0.7" length="0.5" minGap="0.2" maxSpeed="0.97" guiShape="pedestrian"/>
    <person id="p9" type="p9" depart="56">
        <walk edges="-32995#2.229 -32995#2.240 -32995#2.251 -32995#2.264 -32995#2.276 -32995#2.287 -32995#2.299 -32995#2.312 -32995#2.323.0 -32995#2.323.5 -32995#2.323.10 -32995#2.323.19 -32995#2.323.24 -32995#2.323.29 -32995#2.323.34 -32995#2.323.40 -32995#2.323.46 -32995#2.389.0 -32995#2.389.6 -32995#2.389.11 -32995#2.389.16 -32995#2.389.22 -32995#2.389.28 -32995#2.389.33 -32995#2.389.43 -32995#2.389.53 -32995#2.389.63" departPos="0" arrivalPos="-1"/>
    </person>
    <vType id="p10" vClass="pedestrian" width="0.7" length="0.5" minGap="0.2" maxSpeed="0.97" guiShape="pedestrian"/>
    <person id="p10" type="p10" depart="62">
        <walk edges="-32995#2.229 -32995#2.240 -32995#2.251 -32995#2.264 -32995#2.276 -32995#2.287 -32995#2.299 -32995#2.312 -32995#2.323.0 -32995#2.323.5 -32995#2.323.10 -32995#2.323.19 -32995#2.323.24 -32995#2.323.29 -32995#2.323.34 -32995#2.323.40 -32995#2.323.46 -32995#2.389.0 -32995#2.389.6 -32995#2.389.11 -32995#2.389.16 -32995#2.389.22 -32995#2.389.28 -32995#2.389.33 -32995#2.389.43 -32995#2.389.53 -32995#2.389.63" departPos="0" arrivalPos="-1"/>
    </person>
    <vType id="p11" vClass="pedestrian" width="0.7" length="0.5" minGap="0.2" maxSpeed="0.97" guiShape="pedestrian"/>
    <person id="p11" type="p11" depart="92">
        <walk edges="-32995#2.229 -32995#2.240 -32995#2.251 -32995#2.264 -32995#2.276 -32995#2.287 -32995#2.299 -32995#2.312 -32995#2.323.0 -32995#2.323.5 -32995#2.323.10 -32995#2.323.19 -32995#2.323.24 -32995#2.323.29 -32995#2.323.34 -32995#2.323.40 -32995#2.323.46 -32995#2.389.0 -32995#2.389.6 -32995#2.389.11 -32995#2.389.16 -32995#2.389.22 -32995#2.389.28 -32995#2.389.33 -32995#2.389.43 -32995#2.389.53 -32995#2.389.63" departPos="0" arrivalPos="-1"/>
    </person>
    <vType id="p12" vClass="pedestrian" width="0.7" length="0.5" minGap="0.2" maxSpeed="0.97" guiShape="pedestrian"/>
    <person id="p12" type="p12" depart="118">
        <walk edges="-32995#2.229 -32995#2.240 -32995#2.251 -32995#2.264 -32995#2.276 -32995#2.287 -32995#2.299 -32995#2.312 -32995#2.323.0 -32995#2.323.5 -32995#2.323.10 -32995#2.323.19 -32995#2.323.24 -32995#2.323.29 -32995#2.323.34 -32995#2.323.40 -32995#2.323.46 -32995#2.389.0 -32995#2.389.6 -32995#2.389.11 -32995#2.389.16 -32995#2.389.22 -32995#2.389.28 -32995#2.389.33 -32995#2.389.43 -32995#2.389.53 -32995#2.389.63" departPos="0" arrivalPos="-1"/>
    </person>
    <vType id="p13" vClass="pedestrian" width="0.7" length="0.5" minGap="0.2" maxSpeed="0.97" guiShape="pedestrian"/>
    <person id="p13" type="p13" depart="119">
        <walk edges="-32995#2.229 -32995#2.240 -32995#2.251 -32995#2.264 -32995#2.276 -32995#2.287 -32995#2.299 -32995#2.312 -32995#2.323.0 -32995#2.323.5 -32995#2.323.10 -32995#2.323.19 -32995#2.323.24 -32995#2.323.29 -32995#2.323.34 -32995#2.323.40 -32995#2.323.46 -32995#2.389.0 -32995#2.389.6 -32995#2.389.11 -32995#2.389.16 -32995#2.389.22 -32995#2.389.28 -32995#2.389.33 -32995#2.389.43 -32995#2.389.53 -32995#2.389.63" departPos="0" arrivalPos="-1"/>
    </person>
</routes>
