<?xml version="1.0" encoding="UTF-8"?>

<!-- generated on mié 08 feb 2017 10:38:29 CST by Netedit Version 0.28.0
<?xml version="1.0" encoding="UTF-8"?>

<configuration xmlns:xsi="http://www.w3.org/2001/XMLSchema-instance" xsi:noNamespaceSchemaLocation="http://sumo.dlr.de/xsd/netedit.exeConfiguration.xsd">

    <input>
        <sumo-net-file value="/home/plablo/git/traffic-simulation/data/topes_2017_pedestrians.net.xml"/>
    </input>

    <output>
        <output-file value="/home/plablo/git/traffic-simulation/data/topes_2017_pedestrians.net.xml"/>
    </output>

    <processing>
        <no-turnarounds value="true"/>
        <offset.disable-normalization value="true"/>
        <lefthand value="false"/>
        <junctions.corner-detail value="0"/>
    </processing>

</configuration>
-->

<net version="0.27" xmlns:xsi="http://www.w3.org/2001/XMLSchema-instance" xsi:noNamespaceSchemaLocation="http://sumo.dlr.de/xsd/net_file.xsd">

    <location netOffset="-481648.89,-2135374.72" convBoundary="0.00,0.00,424.43,2647.12" origBoundary="-99.174690,19.312142,-99.170646,19.336063" projParameter="+proj=utm +zone=14 +ellps=WGS84 +datum=WGS84 +units=m +no_defs"/>

    <edge id=":-33027_0" function="internal">
        <lane id=":-33027_0_0" index="0" disallow="tram rail_urban rail rail_electric ship" speed="13.89" length="13.98" shape="147.86,1796.24 148.54,1800.42 148.81,1803.31 148.96,1806.21 149.26,1810.45"/>
        <lane id=":-33027_0_1" index="1" disallow="tram rail_urban rail rail_electric ship" speed="13.89" length="13.98" shape="144.61,1796.85 145.28,1800.94 145.54,1803.76 145.68,1806.60 145.98,1810.74"/>
        <lane id=":-33027_0_2" index="2" disallow="tram rail_urban rail rail_electric ship" speed="13.89" length="13.98" shape="141.37,1797.46 142.02,1801.45 142.27,1804.22 142.40,1807.00 142.69,1811.04"/>
    </edge>
    <edge id=":-33027_3" function="internal">
        <lane id=":-33027_3_0" index="0" disallow="tram rail_urban rail rail_electric ship" speed="13.89" length="13.04" shape="141.37,1797.46 141.90,1802.01 141.57,1805.54 140.39,1808.04 138.36,1809.52"/>
        <lane id=":-33027_3_1" index="1" disallow="tram rail_urban rail rail_electric ship" speed="13.89" length="13.04" shape="141.37,1797.46 141.47,1800.63 140.47,1803.31 138.39,1805.51 135.21,1807.21"/>
    </edge>
    <edge id=":-33028_0" function="internal">
        <lane id=":-33028_0_0" index="0" disallow="tram rail_urban rail rail_electric ship" speed="13.89" length="16.59" shape="150.61,1825.29 152.12,1842.10"/>
        <lane id=":-33028_0_1" index="1" disallow="tram rail_urban rail rail_electric ship" speed="13.89" length="16.59" shape="147.32,1825.58 148.82,1842.10"/>
        <lane id=":-33028_0_2" index="2" disallow="tram rail_urban rail rail_electric ship" speed="13.89" length="16.59" shape="144.03,1825.88 145.52,1842.11"/>
    </edge>
    <edge id=":-33028_3" function="internal">
        <lane id=":-33028_3_0" index="0" disallow="tram rail_urban rail rail_electric ship" speed="13.89" length="17.51" shape="140.03,1827.94 143.87,1828.60 146.62,1831.19 148.27,1835.69 148.82,1842.10"/>
        <lane id=":-33028_3_1" index="1" disallow="tram rail_urban rail rail_electric ship" speed="13.89" length="17.51" shape="136.45,1831.49 140.41,1831.92 143.25,1833.84 144.95,1837.23 145.52,1842.11"/>
    </edge>
    <edge id=":-33060_0" function="internal">
        <lane id=":-33060_0_0" index="0" disallow="tram rail_urban rail rail_electric ship" speed="10.36" length="11.91" shape="116.25,1841.66 115.84,1838.25 115.37,1835.94 114.80,1833.65 114.08,1830.28"/>
        <lane id=":-33060_0_1" index="1" disallow="tram rail_urban rail rail_electric ship" speed="10.36" length="11.91" shape="119.53,1841.35 119.11,1837.85 118.64,1835.48 118.06,1833.12 117.32,1829.66"/>
        <lane id=":-33060_0_2" index="2" disallow="tram rail_urban rail rail_electric ship" speed="10.36" length="11.91" shape="122.82,1841.05 122.39,1837.45 121.91,1835.01 121.32,1832.59 120.56,1829.04"/>
    </edge>
    <edge id=":-33060_3" function="internal">
        <lane id=":-33060_3_0" index="0" disallow="tram rail_urban rail rail_electric ship" speed="12.12" length="11.02" shape="122.82,1841.05 122.67,1837.05 123.06,1834.00 123.97,1831.90 125.42,1830.75"/>
        <lane id=":-33060_3_1" index="1" disallow="tram rail_urban rail rail_electric ship" speed="12.12" length="11.02" shape="122.82,1841.05 123.00,1838.47 124.05,1836.27 125.97,1834.44 128.75,1832.99"/>
    </edge>
    <edge id=":-33061_0" function="internal">
        <lane id=":-33061_0_0" index="0" disallow="tram rail_urban rail rail_electric ship" speed="10.36" length="10.32" shape="111.18,1815.12 110.85,1812.09 111.01,1809.97 111.18,1807.85 110.89,1804.81"/>
        <lane id=":-33061_0_1" index="1" disallow="tram rail_urban rail rail_electric ship" speed="10.36" length="10.32" shape="114.42,1814.50 114.09,1811.48 114.25,1809.37 114.42,1807.26 114.14,1804.23"/>
        <lane id=":-33061_0_2" index="2" disallow="tram rail_urban rail rail_electric ship" speed="10.36" length="10.32" shape="117.66,1813.88 117.34,1810.87 117.50,1808.77 117.67,1806.67 117.38,1803.65"/>
    </edge>
    <edge id=":-33061_3" function="internal">
        <lane id=":-33061_3_0" index="0" disallow="tram rail_urban rail rail_electric ship" speed="12.12" length="8.91" shape="121.17,1811.10 118.44,1810.05 116.36,1808.55 114.92,1806.61 114.14,1804.23"/>
        <lane id=":-33061_3_1" index="1" disallow="tram rail_urban rail rail_electric ship" speed="12.12" length="8.91" shape="122.79,1808.12 120.64,1807.35 119.02,1806.34 117.93,1805.11 117.38,1803.65"/>
    </edge>
    <edge id=":TOPE#1_0" function="internal">
        <lane id=":TOPE#1_0_0" index="0" disallow="tram rail_urban rail rail_electric ship" speed="4.79" length="0.30" shape="61.01,1486.50 60.98,1486.20"/>
        <lane id=":TOPE#1_0_1" index="1" disallow="tram rail_urban rail rail_electric ship" speed="4.79" length="0.30" shape="64.30,1486.16 64.27,1485.86"/>
        <lane id=":TOPE#1_0_2" index="2" disallow="tram rail_urban rail rail_electric ship" speed="4.79" length="0.30" shape="67.58,1485.81 67.55,1485.53"/>
    </edge>
    <edge id=":TOPE#1.0N_0" function="internal">
        <lane id=":TOPE#1.0N_0_0" index="0" disallow="tram rail_urban rail rail_electric ship" speed="5.16" length="0.30" shape="62.07,1496.64 62.04,1496.34"/>
        <lane id=":TOPE#1.0N_0_1" index="1" disallow="tram rail_urban rail rail_electric ship" speed="5.16" length="0.30" shape="65.36,1496.30 65.33,1496.00"/>
        <lane id=":TOPE#1.0N_0_2" index="2" disallow="tram rail_urban rail rail_electric ship" speed="5.16" length="0.30" shape="68.64,1495.96 68.61,1495.66"/>
    </edge>
    <edge id=":TOPE#1.10N_0" function="internal">
        <lane id=":TOPE#1.10N_0_0" index="0" disallow="tram rail_urban rail rail_electric ship" speed="10.39" length="0.10" shape="75.98,1625.93 75.98,1625.93"/>
        <lane id=":TOPE#1.10N_0_1" index="1" disallow="tram rail_urban rail rail_electric ship" speed="10.39" length="0.10" shape="79.26,1625.55 79.26,1625.55"/>
        <lane id=":TOPE#1.10N_0_2" index="2" disallow="tram rail_urban rail rail_electric ship" speed="10.39" length="0.10" shape="82.54,1625.18 82.54,1625.18"/>
    </edge>
    <edge id=":TOPE#1.11N_0" function="internal">
        <lane id=":TOPE#1.11N_0_0" index="0" disallow="tram rail_urban rail rail_electric ship" speed="10.36" length="0.30" shape="85.60,1688.73 85.53,1688.44"/>
        <lane id=":TOPE#1.11N_0_1" index="1" disallow="tram rail_urban rail rail_electric ship" speed="10.36" length="0.30" shape="88.81,1687.96 88.74,1687.67"/>
        <lane id=":TOPE#1.11N_0_2" index="2" disallow="tram rail_urban rail rail_electric ship" speed="10.36" length="0.30" shape="92.02,1687.19 91.95,1686.90"/>
    </edge>
    <edge id=":TOPE#1.1N_0" function="internal">
        <lane id=":TOPE#1.1N_0_0" index="0" disallow="tram rail_urban rail rail_electric ship" speed="5.49" length="0.30" shape="63.42,1509.68 63.39,1509.38"/>
        <lane id=":TOPE#1.1N_0_1" index="1" disallow="tram rail_urban rail rail_electric ship" speed="5.49" length="0.30" shape="66.71,1509.34 66.68,1509.04"/>
        <lane id=":TOPE#1.1N_0_2" index="2" disallow="tram rail_urban rail rail_electric ship" speed="5.49" length="0.30" shape="69.99,1509.00 69.96,1508.70"/>
    </edge>
    <edge id=":TOPE#1.2N_0" function="internal">
        <lane id=":TOPE#1.2N_0_0" index="0" disallow="tram rail_urban rail rail_electric ship" speed="5.75" length="0.30" shape="64.68,1521.90 64.65,1521.60"/>
        <lane id=":TOPE#1.2N_0_1" index="1" disallow="tram rail_urban rail rail_electric ship" speed="5.75" length="0.30" shape="67.97,1521.56 67.94,1521.26"/>
        <lane id=":TOPE#1.2N_0_2" index="2" disallow="tram rail_urban rail rail_electric ship" speed="5.75" length="0.30" shape="71.25,1521.22 71.22,1520.92"/>
    </edge>
    <edge id=":TOPE#1.3N_0" function="internal">
        <lane id=":TOPE#1.3N_0_0" index="0" disallow="tram rail_urban rail rail_electric ship" speed="6.11" length="0.30" shape="65.82,1532.91 65.79,1532.61"/>
        <lane id=":TOPE#1.3N_0_1" index="1" disallow="tram rail_urban rail rail_electric ship" speed="6.11" length="0.30" shape="69.11,1532.57 69.08,1532.27"/>
        <lane id=":TOPE#1.3N_0_2" index="2" disallow="tram rail_urban rail rail_electric ship" speed="6.11" length="0.30" shape="72.39,1532.23 72.36,1531.93"/>
    </edge>
    <edge id=":TOPE#1.4N_0" function="internal">
        <lane id=":TOPE#1.4N_0_0" index="0" disallow="tram rail_urban rail rail_electric ship" speed="6.74" length="0.30" shape="67.10,1545.25 67.07,1544.95"/>
        <lane id=":TOPE#1.4N_0_1" index="1" disallow="tram rail_urban rail rail_electric ship" speed="6.74" length="0.30" shape="70.39,1544.91 70.36,1544.61"/>
        <lane id=":TOPE#1.4N_0_2" index="2" disallow="tram rail_urban rail rail_electric ship" speed="6.74" length="0.30" shape="73.67,1544.57 73.64,1544.27"/>
    </edge>
    <edge id=":TOPE#1.5N_0" function="internal">
        <lane id=":TOPE#1.5N_0_0" index="0" disallow="tram rail_urban rail rail_electric ship" speed="7.57" length="0.30" shape="68.35,1557.26 68.32,1556.96"/>
        <lane id=":TOPE#1.5N_0_1" index="1" disallow="tram rail_urban rail rail_electric ship" speed="7.57" length="0.30" shape="71.64,1556.92 71.61,1556.62"/>
        <lane id=":TOPE#1.5N_0_2" index="2" disallow="tram rail_urban rail rail_electric ship" speed="7.57" length="0.30" shape="74.92,1556.58 74.89,1556.28"/>
    </edge>
    <edge id=":TOPE#1.6N_0" function="internal">
        <lane id=":TOPE#1.6N_0_0" index="0" disallow="tram rail_urban rail rail_electric ship" speed="8.36" length="0.29" shape="69.59,1569.19 69.55,1568.89"/>
        <lane id=":TOPE#1.6N_0_1" index="1" disallow="tram rail_urban rail rail_electric ship" speed="8.36" length="0.29" shape="72.87,1568.84 72.84,1568.55"/>
        <lane id=":TOPE#1.6N_0_2" index="2" disallow="tram rail_urban rail rail_electric ship" speed="8.36" length="0.29" shape="76.15,1568.50 76.12,1568.21"/>
    </edge>
    <edge id=":TOPE#1.7N_0" function="internal">
        <lane id=":TOPE#1.7N_0_0" index="0" disallow="tram rail_urban rail rail_electric ship" speed="8.93" length="0.30" shape="70.72,1579.82 70.68,1579.52"/>
        <lane id=":TOPE#1.7N_0_1" index="1" disallow="tram rail_urban rail rail_electric ship" speed="8.93" length="0.30" shape="74.00,1579.44 73.96,1579.15"/>
        <lane id=":TOPE#1.7N_0_2" index="2" disallow="tram rail_urban rail rail_electric ship" speed="8.93" length="0.30" shape="77.27,1579.06 77.24,1578.78"/>
    </edge>
    <edge id=":TOPE#1.8N_0" function="internal">
        <lane id=":TOPE#1.8N_0_0" index="0" disallow="tram rail_urban rail rail_electric ship" speed="9.33" length="0.30" shape="72.05,1591.41 72.01,1591.11"/>
        <lane id=":TOPE#1.8N_0_1" index="1" disallow="tram rail_urban rail rail_electric ship" speed="9.33" length="0.30" shape="75.33,1591.03 75.29,1590.73"/>
        <lane id=":TOPE#1.8N_0_2" index="2" disallow="tram rail_urban rail rail_electric ship" speed="9.33" length="0.30" shape="78.61,1590.66 78.57,1590.36"/>
    </edge>
    <edge id=":TOPE#1.9N_0" function="internal">
        <lane id=":TOPE#1.9N_0_0" index="0" disallow="tram rail_urban rail rail_electric ship" speed="9.96" length="0.30" shape="73.33,1602.67 73.29,1602.37"/>
        <lane id=":TOPE#1.9N_0_1" index="1" disallow="tram rail_urban rail rail_electric ship" speed="9.96" length="0.30" shape="76.61,1602.29 76.57,1601.99"/>
        <lane id=":TOPE#1.9N_0_2" index="2" disallow="tram rail_urban rail rail_electric ship" speed="9.96" length="0.30" shape="79.89,1601.92 79.85,1601.62"/>
    </edge>
    <edge id=":TOPE#2_0" function="internal">
        <lane id=":TOPE#2_0_0" index="0" disallow="tram rail_urban rail rail_electric ship" speed="4.96" length="0.30" shape="54.97,1419.91 54.94,1419.61"/>
        <lane id=":TOPE#2_0_1" index="1" disallow="tram rail_urban rail rail_electric ship" speed="4.96" length="0.30" shape="58.26,1419.65 58.23,1419.35"/>
        <lane id=":TOPE#2_0_2" index="2" disallow="tram rail_urban rail rail_electric ship" speed="4.96" length="0.30" shape="61.55,1419.38 61.52,1419.08"/>
    </edge>
    <edge id=":TOPE#2.0N_0" function="internal">
        <lane id=":TOPE#2.0N_0_0" index="0" disallow="tram rail_urban rail rail_electric ship" speed="4.98" length="0.30" shape="55.64,1428.24 55.61,1427.94"/>
        <lane id=":TOPE#2.0N_0_1" index="1" disallow="tram rail_urban rail rail_electric ship" speed="4.98" length="0.30" shape="58.93,1427.98 58.90,1427.68"/>
        <lane id=":TOPE#2.0N_0_2" index="2" disallow="tram rail_urban rail rail_electric ship" speed="4.98" length="0.30" shape="62.22,1427.71 62.19,1427.42"/>
    </edge>
    <edge id=":TOPE#2.1N_0" function="internal">
        <lane id=":TOPE#2.1N_0_0" index="0" disallow="tram rail_urban rail rail_electric ship" speed="5.00" length="0.30" shape="56.29,1436.27 56.26,1435.97"/>
        <lane id=":TOPE#2.1N_0_1" index="1" disallow="tram rail_urban rail rail_electric ship" speed="5.00" length="0.30" shape="59.58,1436.01 59.55,1435.71"/>
        <lane id=":TOPE#2.1N_0_2" index="2" disallow="tram rail_urban rail rail_electric ship" speed="5.00" length="0.30" shape="62.87,1435.74 62.84,1435.44"/>
    </edge>
    <edge id=":TOPE#2.2N_0" function="internal">
        <lane id=":TOPE#2.2N_0_0" index="0" disallow="tram rail_urban rail rail_electric ship" speed="5.11" length="0.30" shape="56.84,1443.03 56.81,1442.73"/>
        <lane id=":TOPE#2.2N_0_1" index="1" disallow="tram rail_urban rail rail_electric ship" speed="5.11" length="0.30" shape="60.13,1442.77 60.10,1442.47"/>
        <lane id=":TOPE#2.2N_0_2" index="2" disallow="tram rail_urban rail rail_electric ship" speed="5.11" length="0.30" shape="63.42,1442.50 63.39,1442.20"/>
    </edge>
    <edge id=":TOPE#2.3N_0" function="internal">
        <lane id=":TOPE#2.3N_0_0" index="0" disallow="tram rail_urban rail rail_electric ship" speed="5.18" length="0.30" shape="57.33,1449.11 57.30,1448.81"/>
        <lane id=":TOPE#2.3N_0_1" index="1" disallow="tram rail_urban rail rail_electric ship" speed="5.18" length="0.30" shape="60.62,1448.85 60.59,1448.55"/>
        <lane id=":TOPE#2.3N_0_2" index="2" disallow="tram rail_urban rail rail_electric ship" speed="5.18" length="0.30" shape="63.91,1448.59 63.88,1448.28"/>
    </edge>
    <edge id=":TOPE#2.4N_0" function="internal">
        <lane id=":TOPE#2.4N_0_0" index="0" disallow="tram rail_urban rail rail_electric ship" speed="5.09" length="0.30" shape="57.79,1454.88 57.76,1454.57"/>
        <lane id=":TOPE#2.4N_0_1" index="1" disallow="tram rail_urban rail rail_electric ship" speed="5.09" length="0.30" shape="61.08,1454.61 61.05,1454.31"/>
        <lane id=":TOPE#2.4N_0_2" index="2" disallow="tram rail_urban rail rail_electric ship" speed="5.09" length="0.30" shape="64.37,1454.34 64.34,1454.05"/>
    </edge>
    <edge id=":TOPE#2.5N_0" function="internal">
        <lane id=":TOPE#2.5N_0_0" index="0" disallow="tram rail_urban rail rail_electric ship" speed="4.94" length="0.30" shape="58.33,1460.56 58.30,1460.26"/>
        <lane id=":TOPE#2.5N_0_1" index="1" disallow="tram rail_urban rail rail_electric ship" speed="4.94" length="0.30" shape="61.62,1460.22 61.59,1459.92"/>
        <lane id=":TOPE#2.5N_0_2" index="2" disallow="tram rail_urban rail rail_electric ship" speed="4.94" length="0.30" shape="64.90,1459.88 64.87,1459.57"/>
    </edge>
    <edge id=":TOPE#2.6N_0" function="internal">
        <lane id=":TOPE#2.6N_0_0" index="0" disallow="tram rail_urban rail rail_electric ship" speed="4.77" length="2.76" shape="57.32,1466.79 58.73,1464.38"/>
        <lane id=":TOPE#2.6N_0_1" index="1" disallow="tram rail_urban rail rail_electric ship" speed="4.77" length="2.76" shape="60.59,1466.40 62.01,1464.04"/>
        <lane id=":TOPE#2.6N_0_2" index="2" disallow="tram rail_urban rail rail_electric ship" speed="4.77" length="2.76" shape="63.88,1466.05 65.29,1463.70"/>
    </edge>
    <edge id=":TOPE#2.7N_0" function="internal">
        <lane id=":TOPE#2.7N_0_0" index="0" disallow="tram rail_urban rail rail_electric ship" speed="4.62" length="2.44" shape="59.59,1472.76 57.77,1471.16"/>
        <lane id=":TOPE#2.7N_0_1" index="1" disallow="tram rail_urban rail rail_electric ship" speed="4.62" length="2.44" shape="62.88,1472.42 61.05,1470.79"/>
        <lane id=":TOPE#2.7N_0_2" index="2" disallow="tram rail_urban rail rail_electric ship" speed="4.62" length="2.44" shape="66.16,1472.08 64.33,1470.47"/>
    </edge>
    <edge id=":TOPE#2.8N_0" function="internal">
        <lane id=":TOPE#2.8N_0_0" index="0" disallow="tram rail_urban rail rail_electric ship" speed="4.56" length="0.30" shape="59.92,1475.97 59.89,1475.67"/>
        <lane id=":TOPE#2.8N_0_1" index="1" disallow="tram rail_urban rail rail_electric ship" speed="4.56" length="0.30" shape="63.21,1475.63 63.18,1475.33"/>
        <lane id=":TOPE#2.8N_0_2" index="2" disallow="tram rail_urban rail rail_electric ship" speed="4.56" length="0.30" shape="66.49,1475.29 66.46,1474.99"/>
    </edge>
    <edge id=":TOPE#2.9N_0" function="internal">
        <lane id=":TOPE#2.9N_0_0" index="0" disallow="tram rail_urban rail rail_electric ship" speed="4.58" length="0.30" shape="60.44,1480.95 60.41,1480.65"/>
        <lane id=":TOPE#2.9N_0_1" index="1" disallow="tram rail_urban rail rail_electric ship" speed="4.58" length="0.30" shape="63.73,1480.61 63.70,1480.31"/>
        <lane id=":TOPE#2.9N_0_2" index="2" disallow="tram rail_urban rail rail_electric ship" speed="4.58" length="0.30" shape="67.01,1480.27 66.98,1479.97"/>
    </edge>
    <edge id=":gneJ26_0" function="internal">
        <lane id=":gneJ26_0_0" index="0" disallow="tram rail_urban rail rail_electric ship" speed="4.99" length="0.30" shape="54.48,1413.87 54.45,1413.57"/>
        <lane id=":gneJ26_0_1" index="1" disallow="tram rail_urban rail rail_electric ship" speed="4.99" length="0.30" shape="57.77,1413.61 57.74,1413.31"/>
        <lane id=":gneJ26_0_2" index="2" disallow="tram rail_urban rail rail_electric ship" speed="4.99" length="0.30" shape="61.06,1413.34 61.03,1413.04"/>
    </edge>
    <edge id=":gneJ27_0" function="internal">
        <lane id=":gneJ27_0_0" index="0" disallow="tram rail_urban rail rail_electric ship" speed="5.13" length="0.30" shape="54.04,1408.43 54.01,1408.13"/>
        <lane id=":gneJ27_0_1" index="1" disallow="tram rail_urban rail rail_electric ship" speed="5.13" length="0.30" shape="57.33,1408.17 57.30,1407.87"/>
        <lane id=":gneJ27_0_2" index="2" disallow="tram rail_urban rail rail_electric ship" speed="5.13" length="0.30" shape="60.62,1407.90 60.59,1407.61"/>
    </edge>
    <edge id=":gneJ28_0" function="internal">
        <lane id=":gneJ28_0_0" index="0" disallow="tram rail_urban rail rail_electric ship" speed="5.43" length="0.10" shape="53.57,1402.54 53.57,1402.54"/>
        <lane id=":gneJ28_0_1" index="1" disallow="tram rail_urban rail rail_electric ship" speed="5.43" length="0.10" shape="56.85,1402.28 56.85,1402.28"/>
        <lane id=":gneJ28_0_2" index="2" disallow="tram rail_urban rail rail_electric ship" speed="5.43" length="0.10" shape="60.14,1402.01 60.14,1402.01"/>
    </edge>
    <edge id=":gneJ29_0" function="internal">
        <lane id=":gneJ29_0_0" index="0" disallow="tram rail_urban rail rail_electric ship" speed="5.87" length="0.30" shape="53.10,1396.70 53.07,1396.40"/>
        <lane id=":gneJ29_0_1" index="1" disallow="tram rail_urban rail rail_electric ship" speed="5.87" length="0.30" shape="56.39,1396.44 56.36,1396.14"/>
        <lane id=":gneJ29_0_2" index="2" disallow="tram rail_urban rail rail_electric ship" speed="5.87" length="0.30" shape="59.68,1396.17 59.65,1395.87"/>
    </edge>
    <edge id=":gneJ30_0" function="internal">
        <lane id=":gneJ30_0_0" index="0" disallow="tram rail_urban rail rail_electric ship" speed="6.41" length="0.30" shape="52.58,1390.30 52.55,1390.00"/>
        <lane id=":gneJ30_0_1" index="1" disallow="tram rail_urban rail rail_electric ship" speed="6.41" length="0.30" shape="55.87,1390.04 55.84,1389.74"/>
        <lane id=":gneJ30_0_2" index="2" disallow="tram rail_urban rail rail_electric ship" speed="6.41" length="0.30" shape="59.16,1389.77 59.13,1389.48"/>
    </edge>
    <edge id=":gneJ31_0" function="internal">
        <lane id=":gneJ31_0_0" index="0" disallow="tram rail_urban rail rail_electric ship" speed="7.23" length="0.30" shape="52.12,1384.50 52.09,1384.20"/>
        <lane id=":gneJ31_0_1" index="1" disallow="tram rail_urban rail rail_electric ship" speed="7.23" length="0.30" shape="55.41,1384.24 55.38,1383.94"/>
        <lane id=":gneJ31_0_2" index="2" disallow="tram rail_urban rail rail_electric ship" speed="7.23" length="0.30" shape="58.70,1383.98 58.67,1383.67"/>
    </edge>
    <edge id=":gneJ33_0" function="internal">
        <lane id=":gneJ33_0_0" index="0" disallow="tram rail_urban rail rail_electric ship" speed="8.12" length="0.30" shape="51.25,1373.74 51.22,1373.44"/>
        <lane id=":gneJ33_0_1" index="1" disallow="tram rail_urban rail rail_electric ship" speed="8.12" length="0.30" shape="54.54,1373.48 54.51,1373.18"/>
        <lane id=":gneJ33_0_2" index="2" disallow="tram rail_urban rail rail_electric ship" speed="8.12" length="0.30" shape="57.83,1373.21 57.80,1372.91"/>
    </edge>
    <edge id=":gneJ34_0" function="internal">
        <lane id=":gneJ34_0_0" index="0" disallow="tram rail_urban rail rail_electric ship" speed="8.74" length="0.30" shape="50.39,1363.02 50.36,1362.72"/>
        <lane id=":gneJ34_0_1" index="1" disallow="tram rail_urban rail rail_electric ship" speed="8.74" length="0.30" shape="53.68,1362.76 53.65,1362.46"/>
        <lane id=":gneJ34_0_2" index="2" disallow="tram rail_urban rail rail_electric ship" speed="8.74" length="0.30" shape="56.97,1362.49 56.94,1362.19"/>
    </edge>
    <edge id=":gneJ35_0" function="internal">
        <lane id=":gneJ35_0_0" index="0" disallow="tram rail_urban rail rail_electric ship" speed="9.11" length="0.30" shape="49.51,1352.18 49.48,1351.88"/>
        <lane id=":gneJ35_0_1" index="1" disallow="tram rail_urban rail rail_electric ship" speed="9.11" length="0.30" shape="52.80,1351.92 52.77,1351.62"/>
        <lane id=":gneJ35_0_2" index="2" disallow="tram rail_urban rail rail_electric ship" speed="9.11" length="0.30" shape="56.09,1351.65 56.06,1351.36"/>
    </edge>
    <edge id=":gneJ36_0" function="internal">
        <lane id=":gneJ36_0_0" index="0" disallow="tram rail_urban rail rail_electric ship" speed="9.35" length="0.30" shape="48.60,1340.82 48.57,1340.52"/>
        <lane id=":gneJ36_0_1" index="1" disallow="tram rail_urban rail rail_electric ship" speed="9.35" length="0.30" shape="51.89,1340.56 51.86,1340.26"/>
        <lane id=":gneJ36_0_2" index="2" disallow="tram rail_urban rail rail_electric ship" speed="9.35" length="0.30" shape="55.18,1340.29 55.15,1339.99"/>
    </edge>
    <edge id=":gneJ37_0" function="internal">
        <lane id=":gneJ37_0_0" index="0" disallow="tram rail_urban rail rail_electric ship" speed="9.62" length="0.30" shape="47.70,1329.74 47.67,1329.44"/>
        <lane id=":gneJ37_0_1" index="1" disallow="tram rail_urban rail rail_electric ship" speed="9.62" length="0.30" shape="50.99,1329.48 50.96,1329.18"/>
        <lane id=":gneJ37_0_2" index="2" disallow="tram rail_urban rail rail_electric ship" speed="9.62" length="0.30" shape="54.28,1329.21 54.25,1328.92"/>
    </edge>
    <edge id=":gneJ38_0" function="internal">
        <lane id=":gneJ38_0_0" index="0" disallow="tram rail_urban rail rail_electric ship" speed="9.87" length="0.10" shape="46.82,1318.73 46.82,1318.73"/>
        <lane id=":gneJ38_0_1" index="1" disallow="tram rail_urban rail rail_electric ship" speed="9.87" length="0.10" shape="50.10,1318.47 50.10,1318.47"/>
        <lane id=":gneJ38_0_2" index="2" disallow="tram rail_urban rail rail_electric ship" speed="9.87" length="0.10" shape="53.39,1318.20 53.39,1318.21"/>
    </edge>
    <edge id=":gneJ39_0" function="internal">
        <lane id=":gneJ39_0_0" index="0" disallow="tram rail_urban rail rail_electric ship" speed="10.02" length="0.30" shape="45.95,1307.91 45.92,1307.61"/>
        <lane id=":gneJ39_0_1" index="1" disallow="tram rail_urban rail rail_electric ship" speed="10.02" length="0.30" shape="49.24,1307.65 49.21,1307.35"/>
        <lane id=":gneJ39_0_2" index="2" disallow="tram rail_urban rail rail_electric ship" speed="10.02" length="0.30" shape="52.53,1307.38 52.50,1307.08"/>
    </edge>
    <edge id=":gneJ40_0" function="internal">
        <lane id=":gneJ40_0_0" index="0" disallow="tram rail_urban rail rail_electric ship" speed="10.10" length="0.30" shape="45.10,1297.37 45.07,1297.07"/>
        <lane id=":gneJ40_0_1" index="1" disallow="tram rail_urban rail rail_electric ship" speed="10.10" length="0.30" shape="48.39,1297.11 48.36,1296.81"/>
        <lane id=":gneJ40_0_2" index="2" disallow="tram rail_urban rail rail_electric ship" speed="10.10" length="0.30" shape="51.68,1296.84 51.65,1296.54"/>
    </edge>
    <edge id=":gneJ41_0" function="internal">
        <lane id=":gneJ41_0_0" index="0" disallow="tram rail_urban rail rail_electric ship" speed="10.17" length="0.30" shape="44.26,1286.99 44.23,1286.69"/>
        <lane id=":gneJ41_0_1" index="1" disallow="tram rail_urban rail rail_electric ship" speed="10.17" length="0.30" shape="47.55,1286.73 47.52,1286.43"/>
        <lane id=":gneJ41_0_2" index="2" disallow="tram rail_urban rail rail_electric ship" speed="10.17" length="0.30" shape="50.84,1286.46 50.81,1286.16"/>
    </edge>
    <edge id=":gneJ42_0" function="internal">
        <lane id=":gneJ42_0_0" index="0" disallow="tram rail_urban rail rail_electric ship" speed="10.23" length="0.30" shape="43.41,1276.39 43.38,1276.09"/>
        <lane id=":gneJ42_0_1" index="1" disallow="tram rail_urban rail rail_electric ship" speed="10.23" length="0.30" shape="46.70,1276.13 46.67,1275.83"/>
        <lane id=":gneJ42_0_2" index="2" disallow="tram rail_urban rail rail_electric ship" speed="10.23" length="0.30" shape="49.99,1275.86 49.96,1275.56"/>
    </edge>
    <edge id=":gneJ43_0" function="internal">
        <lane id=":gneJ43_0_0" index="0" disallow="tram rail_urban rail rail_electric ship" speed="10.30" length="0.30" shape="42.50,1265.20 42.47,1264.90"/>
        <lane id=":gneJ43_0_1" index="1" disallow="tram rail_urban rail rail_electric ship" speed="10.30" length="0.30" shape="45.79,1264.94 45.76,1264.64"/>
        <lane id=":gneJ43_0_2" index="2" disallow="tram rail_urban rail rail_electric ship" speed="10.30" length="0.30" shape="49.08,1264.67 49.05,1264.37"/>
    </edge>
    <edge id=":gneJ44_0" function="internal">
        <lane id=":gneJ44_0_0" index="0" disallow="tram rail_urban rail rail_electric ship" speed="10.37" length="0.30" shape="41.61,1254.15 41.58,1253.85"/>
        <lane id=":gneJ44_0_1" index="1" disallow="tram rail_urban rail rail_electric ship" speed="10.37" length="0.30" shape="44.90,1253.89 44.87,1253.59"/>
        <lane id=":gneJ44_0_2" index="2" disallow="tram rail_urban rail rail_electric ship" speed="10.37" length="0.30" shape="48.19,1253.62 48.16,1253.32"/>
    </edge>
    <edge id=":gneJ45_0" function="internal">
        <lane id=":gneJ45_0_0" index="0" disallow="tram rail_urban rail rail_electric ship" speed="10.61" length="0.30" shape="40.72,1243.07 40.69,1242.77"/>
        <lane id=":gneJ45_0_1" index="1" disallow="tram rail_urban rail rail_electric ship" speed="10.61" length="0.30" shape="44.01,1242.81 43.98,1242.51"/>
        <lane id=":gneJ45_0_2" index="2" disallow="tram rail_urban rail rail_electric ship" speed="10.61" length="0.30" shape="47.30,1242.54 47.27,1242.24"/>
    </edge>
    <edge id=":gneJ46_0" function="internal">
        <lane id=":gneJ46_0_0" index="0" disallow="tram rail_urban rail rail_electric ship" speed="10.94" length="0.30" shape="39.80,1231.66 39.77,1231.36"/>
        <lane id=":gneJ46_0_1" index="1" disallow="tram rail_urban rail rail_electric ship" speed="10.94" length="0.30" shape="43.09,1231.40 43.06,1231.10"/>
        <lane id=":gneJ46_0_2" index="2" disallow="tram rail_urban rail rail_electric ship" speed="10.94" length="0.30" shape="46.38,1231.13 46.35,1230.83"/>
    </edge>
    <edge id=":gneJ47_0" function="internal">
        <lane id=":gneJ47_0_0" index="0" disallow="tram rail_urban rail rail_electric ship" speed="11.08" length="0.30" shape="38.84,1219.76 38.81,1219.46"/>
        <lane id=":gneJ47_0_1" index="1" disallow="tram rail_urban rail rail_electric ship" speed="11.08" length="0.30" shape="42.13,1219.50 42.10,1219.20"/>
        <lane id=":gneJ47_0_2" index="2" disallow="tram rail_urban rail rail_electric ship" speed="11.08" length="0.30" shape="45.42,1219.23 45.39,1218.93"/>
    </edge>
    <edge id=":gneJ49_0" function="internal">
        <lane id=":gneJ49_0_0" index="0" disallow="tram rail_urban rail rail_electric ship" speed="11.12" length="0.30" shape="37.91,1208.22 37.88,1207.92"/>