<?xml version="1.0" encoding="UTF-8"?>

<!-- generated on mié 01 feb 2017 11:38:08 CST by Netedit Version 0.28.0
<?xml version="1.0" encoding="UTF-8"?>

<configuration xmlns:xsi="http://www.w3.org/2001/XMLSchema-instance" xsi:noNamespaceSchemaLocation="http://sumo.dlr.de/xsd/netedit.exeConfiguration.xsd">

    <input>
        <sumo-net-file value="/home/plablo/git/traffic-simulation/data/topes_2017_simple.net.xml"/>
    </input>

    <output>
        <output-file value="/home/plablo/git/traffic-simulation/data/topes_2017_pedestrians.net.xml"/>
    </output>

    <processing>
        <no-turnarounds value="true"/>
        <offset.disable-normalization value="true"/>
        <lefthand value="false"/>
        <junctions.corner-detail value="0"/>
    </processing>

</configuration>
-->

<net version="0.27" xmlns:xsi="http://www.w3.org/2001/XMLSchema-instance" xsi:noNamespaceSchemaLocation="http://sumo.dlr.de/xsd/net_file.xsd">

    <location netOffset="-481648.89,-2135374.72" convBoundary="0.00,0.00,424.43,2647.12" origBoundary="-99.174690,19.312142,-99.170646,19.336063" projParameter="+proj=utm +zone=14 +ellps=WGS84 +datum=WGS84 +units=m +no_defs"/>

    <edge id=":-33027_0" function="internal">
        <lane id=":-33027_0_0" index="0" disallow="tram rail_urban rail rail_electric ship" speed="13.89" length="13.98" shape="147.86,1796.24 148.54,1800.42 148.81,1803.31 148.96,1806.21 149.26,1810.45"/>
        <lane id=":-33027_0_1" index="1" disallow="tram rail_urban rail rail_electric ship" speed="13.89" length="13.98" shape="144.61,1796.85 145.28,1800.94 145.54,1803.76 145.68,1806.60 145.98,1810.74"/>
        <lane id=":-33027_0_2" index="2" disallow="tram rail_urban rail rail_electric ship" speed="13.89" length="13.98" shape="141.37,1797.46 142.02,1801.45 142.27,1804.22 142.40,1807.00 142.69,1811.04"/>
    </edge>
    <edge id=":-33027_3" function="internal">
        <lane id=":-33027_3_0" index="0" disallow="tram rail_urban rail rail_electric ship" speed="13.89" length="13.04" shape="141.37,1797.46 141.90,1802.01 141.57,1805.54 140.39,1808.04 138.36,1809.52"/>
        <lane id=":-33027_3_1" index="1" disallow="tram rail_urban rail rail_electric ship" speed="13.89" length="13.04" shape="141.37,1797.46 141.47,1800.63 140.47,1803.31 138.39,1805.51 135.21,1807.21"/>
    </edge>
    <edge id=":-33028_0" function="internal">
        <lane id=":-33028_0_0" index="0" disallow="tram rail_urban rail rail_electric ship" speed="13.89" length="16.59" shape="150.61,1825.29 152.12,1842.10"/>
        <lane id=":-33028_0_1" index="1" disallow="tram rail_urban rail rail_electric ship" speed="13.89" length="16.59" shape="147.32,1825.58 148.82,1842.10"/>
        <lane id=":-33028_0_2" index="2" disallow="tram rail_urban rail rail_electric ship" speed="13.89" length="16.59" shape="144.03,1825.88 145.52,1842.11"/>
    </edge>
    <edge id=":-33028_3" function="internal">
        <lane id=":-33028_3_0" index="0" disallow="tram rail_urban rail rail_electric ship" speed="13.89" length="17.51" shape="140.03,1827.94 143.87,1828.60 146.62,1831.19 148.27,1835.69 148.82,1842.10"/>
        <lane id=":-33028_3_1" index="1" disallow="tram rail_urban rail rail_electric ship" speed="13.89" length="17.51" shape="136.45,1831.49 140.41,1831.92 143.25,1833.84 144.95,1837.23 145.52,1842.11"/>
    </edge>
    <edge id=":-33060_0" function="internal">
        <lane id=":-33060_0_0" index="0" disallow="tram rail_urban rail rail_electric ship" speed="10.36" length="11.91" shape="116.25,1841.66 115.84,1838.25 115.37,1835.94 114.80,1833.65 114.08,1830.28"/>
        <lane id=":-33060_0_1" index="1" disallow="tram rail_urban rail rail_electric ship" speed="10.36" length="11.91" shape="119.53,1841.35 119.11,1837.85 118.64,1835.48 118.06,1833.12 117.32,1829.66"/>
        <lane id=":-33060_0_2" index="2" disallow="tram rail_urban rail rail_electric ship" speed="10.36" length="11.91" shape="122.82,1841.05 122.39,1837.45 121.91,1835.01 121.32,1832.59 120.56,1829.04"/>
    </edge>
    <edge id=":-33060_3" function="internal">
        <lane id=":-33060_3_0" index="0" disallow="tram rail_urban rail rail_electric ship" speed="12.12" length="11.02" shape="122.82,1841.05 122.67,1837.05 123.06,1834.00 123.97,1831.90 125.42,1830.75"/>
        <lane id=":-33060_3_1" index="1" disallow="tram rail_urban rail rail_electric ship" speed="12.12" length="11.02" shape="122.82,1841.05 123.00,1838.47 124.05,1836.27 125.97,1834.44 128.75,1832.99"/>
    </edge>
    <edge id=":-33061_0" function="internal">
        <lane id=":-33061_0_0" index="0" disallow="tram rail_urban rail rail_electric ship" speed="10.36" length="11.50" shape="111.18,1815.12 109.03,1803.78"/>
        <lane id=":-33061_0_1" index="1" disallow="tram rail_urban rail rail_electric ship" speed="10.36" length="11.50" shape="114.42,1814.50 112.28,1803.20"/>
        <lane id=":-33061_0_2" index="2" disallow="tram rail_urban rail rail_electric ship" speed="10.36" length="11.50" shape="117.66,1813.88 115.53,1802.63"/>
    </edge>
    <edge id=":-33061_3" function="internal">
        <lane id=":-33061_3_0" index="0" disallow="tram rail_urban rail rail_electric ship" speed="12.12" length="11.07" shape="121.17,1811.10 117.66,1809.80 115.01,1808.05 113.22,1805.86 112.28,1803.20"/>
        <lane id=":-33061_3_1" index="1" disallow="tram rail_urban rail rail_electric ship" speed="12.12" length="11.07" shape="122.79,1808.12 119.86,1807.10 117.67,1805.85 116.23,1804.36 115.53,1802.63"/>
    </edge>
    <edge id=":TOPE#1_0" function="internal">
        <lane id=":TOPE#1_0_0" index="0" disallow="tram rail_urban rail rail_electric ship" speed="4.79" length="0.30" shape="59.37,1486.67 59.34,1486.37"/>
        <lane id=":TOPE#1_0_1" index="1" disallow="tram rail_urban rail rail_electric ship" speed="4.79" length="0.30" shape="62.66,1486.33 62.62,1486.03"/>
        <lane id=":TOPE#1_0_2" index="2" disallow="tram rail_urban rail rail_electric ship" speed="4.79" length="0.30" shape="65.94,1485.99 65.91,1485.69"/>
    </edge>
    <edge id=":TOPE#1.0N_0" function="internal">
        <lane id=":TOPE#1.0N_0_0" index="0" disallow="tram rail_urban rail rail_electric ship" speed="5.16" length="0.30" shape="60.43,1496.81 60.40,1496.51"/>
        <lane id=":TOPE#1.0N_0_1" index="1" disallow="tram rail_urban rail rail_electric ship" speed="5.16" length="0.30" shape="63.72,1496.47 63.68,1496.17"/>
        <lane id=":TOPE#1.0N_0_2" index="2" disallow="tram rail_urban rail rail_electric ship" speed="5.16" length="0.30" shape="67.00,1496.13 66.97,1495.83"/>
    </edge>
    <edge id=":TOPE#1.10N_0" function="internal">
        <lane id=":TOPE#1.10N_0_0" index="0" disallow="tram rail_urban rail rail_electric ship" speed="10.39" length="0.10" shape="74.34,1626.11 74.34,1626.11"/>
        <lane id=":TOPE#1.10N_0_1" index="1" disallow="tram rail_urban rail rail_electric ship" speed="10.39" length="0.10" shape="77.62,1625.74 77.62,1625.74"/>
        <lane id=":TOPE#1.10N_0_2" index="2" disallow="tram rail_urban rail rail_electric ship" speed="10.39" length="0.10" shape="80.90,1625.37 80.90,1625.37"/>
    </edge>
    <edge id=":TOPE#1.11N_0" function="internal">
        <lane id=":TOPE#1.11N_0_0" index="0" disallow="tram rail_urban rail rail_electric ship" speed="10.36" length="0.10" shape="83.96,1688.97 83.96,1688.97"/>
        <lane id=":TOPE#1.11N_0_1" index="1" disallow="tram rail_urban rail rail_electric ship" speed="10.36" length="0.10" shape="87.17,1688.20 87.17,1688.20"/>
        <lane id=":TOPE#1.11N_0_2" index="2" disallow="tram rail_urban rail rail_electric ship" speed="10.36" length="0.10" shape="90.38,1687.43 90.38,1687.43"/>
    </edge>
    <edge id=":TOPE#1.1N_0" function="internal">
        <lane id=":TOPE#1.1N_0_0" index="0" disallow="tram rail_urban rail rail_electric ship" speed="5.49" length="0.30" shape="61.78,1509.85 61.75,1509.55"/>
        <lane id=":TOPE#1.1N_0_1" index="1" disallow="tram rail_urban rail rail_electric ship" speed="5.49" length="0.30" shape="65.07,1509.51 65.03,1509.21"/>
        <lane id=":TOPE#1.1N_0_2" index="2" disallow="tram rail_urban rail rail_electric ship" speed="5.49" length="0.30" shape="68.35,1509.17 68.32,1508.87"/>
    </edge>
    <edge id=":TOPE#1.2N_0" function="internal">
        <lane id=":TOPE#1.2N_0_0" index="0" disallow="tram rail_urban rail rail_electric ship" speed="5.75" length="0.30" shape="63.04,1522.07 63.01,1521.77"/>
        <lane id=":TOPE#1.2N_0_1" index="1" disallow="tram rail_urban rail rail_electric ship" speed="5.75" length="0.30" shape="66.33,1521.73 66.29,1521.43"/>
        <lane id=":TOPE#1.2N_0_2" index="2" disallow="tram rail_urban rail rail_electric ship" speed="5.75" length="0.30" shape="69.61,1521.39 69.58,1521.09"/>
    </edge>
    <edge id=":TOPE#1.3N_0" function="internal">
        <lane id=":TOPE#1.3N_0_0" index="0" disallow="tram rail_urban rail rail_electric ship" speed="6.11" length="0.30" shape="64.18,1533.08 64.15,1532.78"/>
        <lane id=":TOPE#1.3N_0_1" index="1" disallow="tram rail_urban rail rail_electric ship" speed="6.11" length="0.30" shape="67.47,1532.74 67.43,1532.44"/>
        <lane id=":TOPE#1.3N_0_2" index="2" disallow="tram rail_urban rail rail_electric ship" speed="6.11" length="0.30" shape="70.75,1532.40 70.72,1532.10"/>
    </edge>
    <edge id=":TOPE#1.4N_0" function="internal">
        <lane id=":TOPE#1.4N_0_0" index="0" disallow="tram rail_urban rail rail_electric ship" speed="6.74" length="0.30" shape="65.46,1545.42 65.43,1545.12"/>
        <lane id=":TOPE#1.4N_0_1" index="1" disallow="tram rail_urban rail rail_electric ship" speed="6.74" length="0.30" shape="68.75,1545.08 68.71,1544.78"/>
        <lane id=":TOPE#1.4N_0_2" index="2" disallow="tram rail_urban rail rail_electric ship" speed="6.74" length="0.30" shape="72.03,1544.74 72.00,1544.44"/>
    </edge>
    <edge id=":TOPE#1.5N_0" function="internal">
        <lane id=":TOPE#1.5N_0_0" index="0" disallow="tram rail_urban rail rail_electric ship" speed="7.57" length="0.30" shape="66.71,1557.43 66.68,1557.13"/>
        <lane id=":TOPE#1.5N_0_1" index="1" disallow="tram rail_urban rail rail_electric ship" speed="7.57" length="0.30" shape="70.00,1557.09 69.96,1556.79"/>
        <lane id=":TOPE#1.5N_0_2" index="2" disallow="tram rail_urban rail rail_electric ship" speed="7.57" length="0.30" shape="73.28,1556.75 73.25,1556.45"/>
    </edge>
    <edge id=":TOPE#1.6N_0" function="internal">
        <lane id=":TOPE#1.6N_0_0" index="0" disallow="tram rail_urban rail rail_electric ship" speed="8.36" length="0.30" shape="67.94,1569.37 67.91,1569.06"/>
        <lane id=":TOPE#1.6N_0_1" index="1" disallow="tram rail_urban rail rail_electric ship" speed="8.36" length="0.30" shape="71.23,1569.02 71.19,1568.72"/>
        <lane id=":TOPE#1.6N_0_2" index="2" disallow="tram rail_urban rail rail_electric ship" speed="8.36" length="0.30" shape="74.51,1568.67 74.48,1568.38"/>
    </edge>
    <edge id=":TOPE#1.7N_0" function="internal">
        <lane id=":TOPE#1.7N_0_0" index="0" disallow="tram rail_urban rail rail_electric ship" speed="8.93" length="0.30" shape="69.08,1580.01 69.04,1579.70"/>
        <lane id=":TOPE#1.7N_0_1" index="1" disallow="tram rail_urban rail rail_electric ship" speed="8.93" length="0.30" shape="72.36,1579.63 72.32,1579.33"/>
        <lane id=":TOPE#1.7N_0_2" index="2" disallow="tram rail_urban rail rail_electric ship" speed="8.93" length="0.30" shape="75.64,1579.25 75.60,1578.96"/>
    </edge>
    <edge id=":TOPE#1.8N_0" function="internal">
        <lane id=":TOPE#1.8N_0_0" index="0" disallow="tram rail_urban rail rail_electric ship" speed="9.33" length="0.30" shape="70.41,1591.59 70.37,1591.30"/>
        <lane id=":TOPE#1.8N_0_1" index="1" disallow="tram rail_urban rail rail_electric ship" speed="9.33" length="0.30" shape="73.69,1591.22 73.65,1590.92"/>
        <lane id=":TOPE#1.8N_0_2" index="2" disallow="tram rail_urban rail rail_electric ship" speed="9.33" length="0.30" shape="76.97,1590.85 76.93,1590.54"/>
    </edge>
    <edge id=":TOPE#1.9N_0" function="internal">
        <lane id=":TOPE#1.9N_0_0" index="0" disallow="tram rail_urban rail rail_electric ship" speed="9.96" length="0.30" shape="71.69,1602.85 71.65,1602.55"/>
        <lane id=":TOPE#1.9N_0_1" index="1" disallow="tram rail_urban rail rail_electric ship" speed="9.96" length="0.30" shape="74.97,1602.48 74.93,1602.18"/>
        <lane id=":TOPE#1.9N_0_2" index="2" disallow="tram rail_urban rail rail_electric ship" speed="9.96" length="0.30" shape="78.25,1602.11 78.21,1601.81"/>
    </edge>
    <edge id=":TOPE#2_0" function="internal">
        <lane id=":TOPE#2_0_0" index="0" disallow="tram rail_urban rail rail_electric ship" speed="4.96" length="0.30" shape="53.32,1420.04 53.30,1419.75"/>
        <lane id=":TOPE#2_0_1" index="1" disallow="tram rail_urban rail rail_electric ship" speed="4.96" length="0.30" shape="56.61,1419.78 56.59,1419.48"/>
        <lane id=":TOPE#2_0_2" index="2" disallow="tram rail_urban rail rail_electric ship" speed="4.96" length="0.30" shape="59.90,1419.51 59.88,1419.21"/>
    </edge>
    <edge id=":TOPE#2.0N_0" function="internal">
        <lane id=":TOPE#2.0N_0_0" index="0" disallow="tram rail_urban rail rail_electric ship" speed="4.98" length="0.30" shape="53.99,1428.38 53.97,1428.08"/>
        <lane id=":TOPE#2.0N_0_1" index="1" disallow="tram rail_urban rail rail_electric ship" speed="4.98" length="0.30" shape="57.28,1428.11 57.26,1427.81"/>
        <lane id=":TOPE#2.0N_0_2" index="2" disallow="tram rail_urban rail rail_electric ship" speed="4.98" length="0.30" shape="60.57,1427.84 60.55,1427.55"/>
    </edge>
    <edge id=":TOPE#2.1N_0" function="internal">
        <lane id=":TOPE#2.1N_0_0" index="0" disallow="tram rail_urban rail rail_electric ship" speed="5.00" length="0.30" shape="54.64,1436.41 54.62,1436.11"/>
        <lane id=":TOPE#2.1N_0_1" index="1" disallow="tram rail_urban rail rail_electric ship" speed="5.00" length="0.30" shape="57.93,1436.14 57.91,1435.84"/>
        <lane id=":TOPE#2.1N_0_2" index="2" disallow="tram rail_urban rail rail_electric ship" speed="5.00" length="0.30" shape="61.22,1435.87 61.20,1435.57"/>
    </edge>
    <edge id=":TOPE#2.2N_0" function="internal">
        <lane id=":TOPE#2.2N_0_0" index="0" disallow="tram rail_urban rail rail_electric ship" speed="5.11" length="0.30" shape="55.19,1443.16 55.17,1442.87"/>
        <lane id=":TOPE#2.2N_0_1" index="1" disallow="tram rail_urban rail rail_electric ship" speed="5.11" length="0.30" shape="58.48,1442.90 58.46,1442.60"/>
        <lane id=":TOPE#2.2N_0_2" index="2" disallow="tram rail_urban rail rail_electric ship" speed="5.11" length="0.30" shape="61.77,1442.63 61.75,1442.33"/>
    </edge>
    <edge id=":TOPE#2.3N_0" function="internal">
        <lane id=":TOPE#2.3N_0_0" index="0" disallow="tram rail_urban rail rail_electric ship" speed="5.18" length="0.30" shape="55.68,1449.24 55.66,1448.95"/>
        <lane id=":TOPE#2.3N_0_1" index="1" disallow="tram rail_urban rail rail_electric ship" speed="5.18" length="0.30" shape="58.97,1448.98 58.95,1448.68"/>
        <lane id=":TOPE#2.3N_0_2" index="2" disallow="tram rail_urban rail rail_electric ship" speed="5.18" length="0.30" shape="62.26,1448.72 62.24,1448.42"/>
    </edge>
    <edge id=":TOPE#2.4N_0" function="internal">
        <lane id=":TOPE#2.4N_0_0" index="0" disallow="tram rail_urban rail rail_electric ship" speed="5.09" length="0.30" shape="56.14,1455.01 56.12,1454.70"/>
        <lane id=":TOPE#2.4N_0_1" index="1" disallow="tram rail_urban rail rail_electric ship" speed="5.09" length="0.30" shape="59.43,1454.74 59.41,1454.44"/>
        <lane id=":TOPE#2.4N_0_2" index="2" disallow="tram rail_urban rail rail_electric ship" speed="5.09" length="0.30" shape="62.72,1454.47 62.70,1454.18"/>
    </edge>
    <edge id=":TOPE#2.5N_0" function="internal">
        <lane id=":TOPE#2.5N_0_0" index="0" disallow="tram rail_urban rail rail_electric ship" speed="4.94" length="0.30" shape="56.69,1460.73 56.66,1460.44"/>
        <lane id=":TOPE#2.5N_0_1" index="1" disallow="tram rail_urban rail rail_electric ship" speed="4.94" length="0.30" shape="59.98,1460.39 59.94,1460.09"/>
        <lane id=":TOPE#2.5N_0_2" index="2" disallow="tram rail_urban rail rail_electric ship" speed="4.94" length="0.30" shape="63.26,1460.05 63.23,1459.75"/>
    </edge>
    <edge id=":TOPE#2.6N_0" function="internal">
        <lane id=":TOPE#2.6N_0_0" index="0" disallow="tram rail_urban rail rail_electric ship" speed="4.77" length="1.58" shape="57.24,1466.04 57.22,1465.89"/>
        <lane id=":TOPE#2.6N_0_1" index="1" disallow="tram rail_urban rail rail_electric ship" speed="4.77" length="1.58" shape="60.74,1467.84 60.50,1465.55"/>
        <lane id=":TOPE#2.6N_0_2" index="2" disallow="tram rail_urban rail rail_electric ship" speed="4.77" length="1.58" shape="64.03,1467.50 63.79,1465.21"/>
    </edge>
    <edge id=":TOPE#2.7N_0" function="internal">
        <lane id=":TOPE#2.7N_0_0" index="0" disallow="tram rail_urban rail rail_electric ship" speed="4.62" length="0.15" shape="57.81,1471.59 57.80,1471.42"/>
        <lane id=":TOPE#2.7N_0_1" index="1" disallow="tram rail_urban rail rail_electric ship" speed="4.62" length="0.15" shape="61.10,1471.25 61.08,1471.10"/>
        <lane id=":TOPE#2.7N_0_2" index="2" disallow="tram rail_urban rail rail_electric ship" speed="4.62" length="0.15" shape="64.38,1470.91 64.36,1470.78"/>
    </edge>
    <edge id=":TOPE#2.8N_0" function="internal">
        <lane id=":TOPE#2.8N_0_0" index="0" disallow="tram rail_urban rail rail_electric ship" speed="4.56" length="0.30" shape="58.28,1476.14 58.25,1475.84"/>
        <lane id=":TOPE#2.8N_0_1" index="1" disallow="tram rail_urban rail rail_electric ship" speed="4.56" length="0.30" shape="61.57,1475.80 61.53,1475.50"/>
        <lane id=":TOPE#2.8N_0_2" index="2" disallow="tram rail_urban rail rail_electric ship" speed="4.56" length="0.30" shape="64.85,1475.46 64.82,1475.16"/>
    </edge>
    <edge id=":TOPE#2.9N_0" function="internal">
        <lane id=":TOPE#2.9N_0_0" index="0" disallow="tram rail_urban rail rail_electric ship" speed="4.58" length="0.30" shape="58.80,1481.12 58.77,1480.82"/>
        <lane id=":TOPE#2.9N_0_1" index="1" disallow="tram rail_urban rail rail_electric ship" speed="4.58" length="0.30" shape="62.09,1480.78 62.05,1480.48"/>
        <lane id=":TOPE#2.9N_0_2" index="2" disallow="tram rail_urban rail rail_electric ship" speed="4.58" length="0.30" shape="65.37,1480.44 65.34,1480.14"/>
    </edge>
    <edge id=":gneJ26_0" function="internal">
        <lane id=":gneJ26_0_0" index="0" disallow="tram rail_urban rail rail_electric ship" speed="4.99" length="0.30" shape="52.83,1414.01 52.81,1413.71"/>
        <lane id=":gneJ26_0_1" index="1" disallow="tram rail_urban rail rail_electric ship" speed="4.99" length="0.30" shape="56.12,1413.74 56.10,1413.44"/>
        <lane id=":gneJ26_0_2" index="2" disallow="tram rail_urban rail rail_electric ship" speed="4.99" length="0.30" shape="59.41,1413.47 59.39,1413.17"/>
    </edge>
    <edge id=":gneJ27_0" function="internal">
        <lane id=":gneJ27_0_0" index="0" disallow="tram rail_urban rail rail_electric ship" speed="5.13" length="0.30" shape="52.39,1408.57 52.37,1408.26"/>
        <lane id=":gneJ27_0_1" index="1" disallow="tram rail_urban rail rail_electric ship" speed="5.13" length="0.30" shape="55.68,1408.30 55.66,1408.00"/>
        <lane id=":gneJ27_0_2" index="2" disallow="tram rail_urban rail rail_electric ship" speed="5.13" length="0.30" shape="58.97,1408.03 58.95,1407.74"/>
    </edge>
    <edge id=":gneJ28_0" function="internal">
        <lane id=":gneJ28_0_0" index="0" disallow="tram rail_urban rail rail_electric ship" speed="5.43" length="0.10" shape="51.92,1402.67 51.92,1402.67"/>
        <lane id=":gneJ28_0_1" index="1" disallow="tram rail_urban rail rail_electric ship" speed="5.43" length="0.10" shape="55.21,1402.41 55.21,1402.41"/>
        <lane id=":gneJ28_0_2" index="2" disallow="tram rail_urban rail rail_electric ship" speed="5.43" length="0.10" shape="58.50,1402.15 58.50,1402.15"/>
    </edge>
    <edge id=":gneJ29_0" function="internal">
        <lane id=":gneJ29_0_0" index="0" disallow="tram rail_urban rail rail_electric ship" speed="5.87" length="0.30" shape="51.45,1396.83 51.43,1396.54"/>
        <lane id=":gneJ29_0_1" index="1" disallow="tram rail_urban rail rail_electric ship" speed="5.87" length="0.30" shape="54.74,1396.57 54.72,1396.27"/>
        <lane id=":gneJ29_0_2" index="2" disallow="tram rail_urban rail rail_electric ship" speed="5.87" length="0.30" shape="58.03,1396.31 58.01,1396.00"/>
    </edge>
    <edge id=":gneJ30_0" function="internal">
        <lane id=":gneJ30_0_0" index="0" disallow="tram rail_urban rail rail_electric ship" speed="6.41" length="0.30" shape="50.93,1390.44 50.91,1390.13"/>
        <lane id=":gneJ30_0_1" index="1" disallow="tram rail_urban rail rail_electric ship" speed="6.41" length="0.30" shape="54.22,1390.17 54.20,1389.87"/>
        <lane id=":gneJ30_0_2" index="2" disallow="tram rail_urban rail rail_electric ship" speed="6.41" length="0.30" shape="57.51,1389.90 57.49,1389.61"/>
    </edge>
    <edge id=":gneJ31_0" function="internal">
        <lane id=":gneJ31_0_0" index="0" disallow="tram rail_urban rail rail_electric ship" speed="7.23" length="0.30" shape="50.47,1384.63 50.45,1384.34"/>
        <lane id=":gneJ31_0_1" index="1" disallow="tram rail_urban rail rail_electric ship" speed="7.23" length="0.30" shape="53.76,1384.37 53.74,1384.07"/>
        <lane id=":gneJ31_0_2" index="2" disallow="tram rail_urban rail rail_electric ship" speed="7.23" length="0.30" shape="57.05,1384.11 57.03,1383.80"/>
    </edge>
    <edge id=":gneJ33_0" function="internal">
        <lane id=":gneJ33_0_0" index="0" disallow="tram rail_urban rail rail_electric ship" speed="8.12" length="0.30" shape="49.60,1373.88 49.58,1373.57"/>
        <lane id=":gneJ33_0_1" index="1" disallow="tram rail_urban rail rail_electric ship" speed="8.12" length="0.30" shape="52.89,1373.61 52.87,1373.31"/>
        <lane id=":gneJ33_0_2" index="2" disallow="tram rail_urban rail rail_electric ship" speed="8.12" length="0.30" shape="56.18,1373.34 56.16,1373.05"/>
    </edge>
    <edge id=":gneJ34_0" function="internal">
        <lane id=":gneJ34_0_0" index="0" disallow="tram rail_urban rail rail_electric ship" speed="8.74" length="0.30" shape="48.74,1363.15 48.72,1362.86"/>
        <lane id=":gneJ34_0_1" index="1" disallow="tram rail_urban rail rail_electric ship" speed="8.74" length="0.30" shape="52.03,1362.89 52.01,1362.59"/>
        <lane id=":gneJ34_0_2" index="2" disallow="tram rail_urban rail rail_electric ship" speed="8.74" length="0.30" shape="55.32,1362.63 55.30,1362.32"/>
    </edge>
    <edge id=":gneJ35_0" function="internal">
        <lane id=":gneJ35_0_0" index="0" disallow="tram rail_urban rail rail_electric ship" speed="9.11" length="0.30" shape="47.86,1352.32 47.84,1352.01"/>
        <lane id=":gneJ35_0_1" index="1" disallow="tram rail_urban rail rail_electric ship" speed="9.11" length="0.30" shape="51.15,1352.05 51.13,1351.75"/>
        <lane id=":gneJ35_0_2" index="2" disallow="tram rail_urban rail rail_electric ship" speed="9.11" length="0.30" shape="54.44,1351.78 54.42,1351.49"/>
    </edge>
    <edge id=":gneJ36_0" function="internal">
        <lane id=":gneJ36_0_0" index="0" disallow="tram rail_urban rail rail_electric ship" speed="9.35" length="0.30" shape="46.95,1340.95 46.93,1340.66"/>
        <lane id=":gneJ36_0_1" index="1" disallow="tram rail_urban rail rail_electric ship" speed="9.35" length="0.30" shape="50.24,1340.69 50.22,1340.39"/>
        <lane id=":gneJ36_0_2" index="2" disallow="tram rail_urban rail rail_electric ship" speed="9.35" length="0.30" shape="53.53,1340.43 53.51,1340.12"/>
    </edge>
    <edge id=":gneJ37_0" function="internal">
        <lane id=":gneJ37_0_0" index="0" disallow="tram rail_urban rail rail_electric ship" speed="9.62" length="0.30" shape="46.05,1329.88 46.03,1329.57"/>
        <lane id=":gneJ37_0_1" index="1" disallow="tram rail_urban rail rail_electric ship" speed="9.62" length="0.30" shape="49.34,1329.61 49.32,1329.31"/>
        <lane id=":gneJ37_0_2" index="2" disallow="tram rail_urban rail rail_electric ship" speed="9.62" length="0.30" shape="52.63,1329.34 52.61,1329.05"/>
    </edge>
    <edge id=":gneJ38_0" function="internal">
        <lane id=":gneJ38_0_0" index="0" disallow="tram rail_urban rail rail_electric ship" speed="9.87" length="0.10" shape="45.17,1318.86 45.17,1318.86"/>
        <lane id=":gneJ38_0_1" index="1" disallow="tram rail_urban rail rail_electric ship" speed="9.87" length="0.10" shape="48.46,1318.60 48.46,1318.60"/>
        <lane id=":gneJ38_0_2" index="2" disallow="tram rail_urban rail rail_electric ship" speed="9.87" length="0.10" shape="51.75,1318.34 51.75,1318.34"/>
    </edge>
    <edge id=":gneJ39_0" function="internal">
        <lane id=":gneJ39_0_0" index="0" disallow="tram rail_urban rail rail_electric ship" speed="10.02" length="0.30" shape="44.30,1308.04 44.28,1307.75"/>
        <lane id=":gneJ39_0_1" index="1" disallow="tram rail_urban rail rail_electric ship" speed="10.02" length="0.30" shape="47.59,1307.78 47.57,1307.48"/>
        <lane id=":gneJ39_0_2" index="2" disallow="tram rail_urban rail rail_electric ship" speed="10.02" length="0.30" shape="50.88,1307.52 50.86,1307.22"/>
    </edge>
    <edge id=":gneJ40_0" function="internal">
        <lane id=":gneJ40_0_0" index="0" disallow="tram rail_urban rail rail_electric ship" speed="10.10" length="0.30" shape="43.45,1297.50 43.43,1297.21"/>
        <lane id=":gneJ40_0_1" index="1" disallow="tram rail_urban rail rail_electric ship" speed="10.10" length="0.30" shape="46.74,1297.24 46.72,1296.94"/>
        <lane id=":gneJ40_0_2" index="2" disallow="tram rail_urban rail rail_electric ship" speed="10.10" length="0.30" shape="50.03,1296.97 50.01,1296.67"/>
    </edge>
    <edge id=":gneJ41_0" function="internal">
        <lane id=":gneJ41_0_0" index="0" disallow="tram rail_urban rail rail_electric ship" speed="10.17" length="0.30" shape="42.61,1287.13 42.59,1286.82"/>
        <lane id=":gneJ41_0_1" index="1" disallow="tram rail_urban rail rail_electric ship" speed="10.17" length="0.30" shape="45.90,1286.86 45.88,1286.56"/>
        <lane id=":gneJ41_0_2" index="2" disallow="tram rail_urban rail rail_electric ship" speed="10.17" length="0.30" shape="49.19,1286.59 49.17,1286.30"/>
    </edge>
    <edge id=":gneJ42_0" function="internal">
        <lane id=":gneJ42_0_0" index="0" disallow="tram rail_urban rail rail_electric ship" speed="10.23" length="0.30" shape="41.76,1276.52 41.74,1276.23"/>
        <lane id=":gneJ42_0_1" index="1" disallow="tram rail_urban rail rail_electric ship" speed="10.23" length="0.30" shape="45.05,1276.26 45.03,1275.96"/>
        <lane id=":gneJ42_0_2" index="2" disallow="tram rail_urban rail rail_electric ship" speed="10.23" length="0.30" shape="48.34,1276.00 48.32,1275.69"/>
    </edge>
    <edge id=":gneJ43_0" function="internal">
        <lane id=":gneJ43_0_0" index="0" disallow="tram rail_urban rail rail_electric ship" speed="10.30" length="0.30" shape="40.85,1265.34 40.83,1265.04"/>
        <lane id=":gneJ43_0_1" index="1" disallow="tram rail_urban rail rail_electric ship" speed="10.30" length="0.30" shape="44.14,1265.07 44.12,1264.77"/>
        <lane id=":gneJ43_0_2" index="2" disallow="tram rail_urban rail rail_electric ship" speed="10.30" length="0.30" shape="47.43,1264.80 47.41,1264.51"/>
    </edge>
    <edge id=":gneJ44_0" function="internal">
        <lane id=":gneJ44_0_0" index="0" disallow="tram rail_urban rail rail_electric ship" speed="10.37" length="0.30" shape="39.96,1254.28 39.94,1253.98"/>
        <lane id=":gneJ44_0_1" index="1" disallow="tram rail_urban rail rail_electric ship" speed="10.37" length="0.30" shape="43.25,1254.02 43.23,1253.72"/>
        <lane id=":gneJ44_0_2" index="2" disallow="tram rail_urban rail rail_electric ship" speed="10.37" length="0.30" shape="46.54,1253.75 46.52,1253.46"/>
    </edge>
    <edge id=":gneJ45_0" function="internal">
        <lane id=":gneJ45_0_0" index="0" disallow="tram rail_urban rail rail_electric ship" speed="10.61" length="0.30" shape="39.07,1243.20 39.05,1242.91"/>
        <lane id=":gneJ45_0_1" index="1" disallow="tram rail_urban rail rail_electric ship" speed="10.61" length="0.30" shape="42.36,1242.94 42.34,1242.64"/>
        <lane id=":gneJ45_0_2" index="2" disallow="tram rail_urban rail rail_electric ship" speed="10.61" length="0.30" shape="45.65,1242.68 45.63,1242.38"/>
    </edge>
    <edge id=":gneJ46_0" function="internal">
        <lane id=":gneJ46_0_0" index="0" disallow="tram rail_urban rail rail_electric ship" speed="10.94" length="0.30" shape="38.15,1231.79 38.13,1231.49"/>
        <lane id=":gneJ46_0_1" index="1" disallow="tram rail_urban rail rail_electric ship" speed="10.94" length="0.30" shape="41.44,1231.53 41.42,1231.23"/>
        <lane id=":gneJ46_0_2" index="2" disallow="tram rail_urban rail rail_electric ship" speed="10.94" length="0.30" shape="44.73,1231.26 44.71,1230.97"/>
    </edge>
    <edge id=":gneJ47_0" function="internal">
        <lane id=":gneJ47_0_0" index="0" disallow="tram rail_urban rail rail_electric ship" speed="11.08" length="0.30" shape="37.19,1219.90 37.17,1219.60"/>
        <lane id=":gneJ47_0_1" index="1" disallow="tram rail_urban rail rail_electric ship" speed="11.08" length="0.30" shape="40.48,1219.63 40.46,1219.33"/>
        <lane id=":gneJ47_0_2" index="2" disallow="tram rail_urban rail rail_electric ship" speed="11.08" length="0.30" shape="43.77,1219.36 43.75,1219.07"/>
    </edge>
    <edge id=":gneJ49_0" function="internal">
        <lane id=":gneJ49_0_0" index="0" disallow="tram rail_urban rail rail_electric ship" speed="11.12" length="0.30" shape="36.26,1208.35 36.24,1208.05"/>
        <lane id=":gneJ49_0_1" index="1" disallow="tram rail_urban rail rail_electric ship" speed="11.12" length="0.30" shape="39.55,1208.09 39.53,1207.79"/>