<?xml version="1.0" encoding="UTF-8"?>

<!-- generated on mar 31 ene 2017 10:48:28 CST by Netedit Version 0.25.0
<?xml version="1.0" encoding="UTF-8"?>

<configuration xmlns:xsi="http://www.w3.org/2001/XMLSchema-instance" xsi:noNamespaceSchemaLocation="http://sumo.dlr.de/xsd/netedit.exeConfiguration.xsd">

    <input>
        <sumo-net-file value="/home/plablo/git/traffic-simulation/data/sumo_topes_2016.net.xml"/>
    </input>

    <output>
        <output-file value="/home/plablo/git/traffic-simulation/data/sumo_topes_2016.net.xml"/>
    </output>

    <processing>
        <no-turnarounds value="true"/>
        <offset.disable-normalization value="true"/>
        <lefthand value="false"/>
        <junctions.corner-detail value="0"/>
    </processing>

</configuration>
-->

<net version="0.25" xmlns:xsi="http://www.w3.org/2001/XMLSchema-instance" xsi:noNamespaceSchemaLocation="http://sumo.dlr.de/xsd/net_file.xsd">

    <location netOffset="-481648.89,-2135374.72" convBoundary="0.00,0.00,424.43,2647.12" origBoundary="-99.174690,19.312142,-99.170646,19.336063" projParameter="+proj=utm +zone=14 +ellps=WGS84 +datum=WGS84 +units=m +no_defs"/>

    <edge id=":-33027_0" function="internal">
        <lane id=":-33027_0_0" index="0" disallow="tram rail_urban rail rail_electric ship" speed="13.89" length="13.98" shape="147.86,1796.24 148.54,1800.42 148.81,1803.31 148.96,1806.21 149.26,1810.45"/>
        <lane id=":-33027_0_1" index="1" disallow="tram rail_urban rail rail_electric ship" speed="13.89" length="13.98" shape="144.61,1796.85 145.28,1800.94 145.54,1803.76 145.68,1806.60 145.98,1810.74"/>
        <lane id=":-33027_0_2" index="2" disallow="tram rail_urban rail rail_electric ship" speed="13.89" length="13.98" shape="141.37,1797.46 142.02,1801.45 142.27,1804.22 142.40,1807.00 142.69,1811.04"/>
    </edge>
    <edge id=":-33027_3" function="internal">
        <lane id=":-33027_3_0" index="0" disallow="tram rail_urban rail rail_electric ship" speed="13.89" length="13.04" shape="141.37,1797.46 141.90,1802.01 141.57,1805.54 140.39,1808.04 138.36,1809.52"/>
        <lane id=":-33027_3_1" index="1" disallow="tram rail_urban rail rail_electric ship" speed="13.89" length="13.04" shape="141.37,1797.46 141.47,1800.63 140.47,1803.31 138.39,1805.51 135.21,1807.21"/>
    </edge>
    <edge id=":-33028_0" function="internal">
        <lane id=":-33028_0_0" index="0" disallow="tram rail_urban rail rail_electric ship" speed="13.89" length="16.60" shape="150.61,1825.29 151.16,1830.27 151.64,1833.68 151.99,1837.09 152.12,1842.10"/>
        <lane id=":-33028_0_1" index="1" disallow="tram rail_urban rail rail_electric ship" speed="13.89" length="16.60" shape="147.32,1825.58 147.87,1830.48 148.35,1833.83 148.69,1837.18 148.82,1842.10"/>
        <lane id=":-33028_0_2" index="2" disallow="tram rail_urban rail rail_electric ship" speed="13.89" length="16.60" shape="144.03,1825.88 144.57,1830.69 145.05,1833.98 145.39,1837.27 145.52,1842.11"/>
    </edge>
    <edge id=":-33028_3" function="internal">
        <lane id=":-33028_3_0" index="0" disallow="tram rail_urban rail rail_electric ship" speed="13.89" length="17.51" shape="140.03,1827.94 143.87,1828.60 146.62,1831.19 148.27,1835.69 148.82,1842.10"/>
        <lane id=":-33028_3_1" index="1" disallow="tram rail_urban rail rail_electric ship" speed="13.89" length="17.51" shape="136.45,1831.49 140.41,1831.92 143.25,1833.84 144.95,1837.23 145.52,1842.11"/>
    </edge>
    <edge id=":-33060_0" function="internal">
        <lane id=":-33060_0_0" index="0" disallow="tram rail_urban rail rail_electric ship" speed="10.36" length="11.91" shape="116.25,1841.66 115.84,1838.25 115.37,1835.94 114.80,1833.65 114.08,1830.28"/>
        <lane id=":-33060_0_1" index="1" disallow="tram rail_urban rail rail_electric ship" speed="10.36" length="11.91" shape="119.53,1841.35 119.11,1837.85 118.64,1835.48 118.06,1833.12 117.32,1829.66"/>
        <lane id=":-33060_0_2" index="2" disallow="tram rail_urban rail rail_electric ship" speed="10.36" length="11.91" shape="122.82,1841.05 122.39,1837.45 121.91,1835.01 121.32,1832.59 120.56,1829.04"/>
    </edge>
    <edge id=":-33060_3" function="internal">
        <lane id=":-33060_3_0" index="0" disallow="tram rail_urban rail rail_electric ship" speed="12.12" length="11.02" shape="122.82,1841.05 122.67,1837.05 123.06,1834.00 123.97,1831.90 125.42,1830.75"/>
        <lane id=":-33060_3_1" index="1" disallow="tram rail_urban rail rail_electric ship" speed="12.12" length="11.02" shape="122.82,1841.05 123.00,1838.47 124.05,1836.27 125.97,1834.44 128.75,1832.99"/>
    </edge>
    <edge id=":-33061_0" function="internal">
        <lane id=":-33061_0_0" index="0" disallow="tram rail_urban rail rail_electric ship" speed="10.36" length="11.50" shape="111.18,1815.12 110.53,1811.76 110.08,1809.46 109.64,1807.16 109.03,1803.78"/>
        <lane id=":-33061_0_1" index="1" disallow="tram rail_urban rail rail_electric ship" speed="10.36" length="11.50" shape="114.42,1814.50 113.77,1811.15 113.32,1808.86 112.89,1806.56 112.28,1803.20"/>
        <lane id=":-33061_0_2" index="2" disallow="tram rail_urban rail rail_electric ship" speed="10.36" length="11.50" shape="117.66,1813.88 117.01,1810.54 116.57,1808.26 116.13,1805.97 115.53,1802.63"/>
    </edge>
    <edge id=":-33061_3" function="internal">
        <lane id=":-33061_3_0" index="0" disallow="tram rail_urban rail rail_electric ship" speed="12.12" length="11.07" shape="121.17,1811.10 117.66,1809.80 115.01,1808.05 113.22,1805.86 112.28,1803.20"/>
        <lane id=":-33061_3_1" index="1" disallow="tram rail_urban rail rail_electric ship" speed="12.12" length="11.07" shape="122.79,1808.12 119.86,1807.10 117.67,1805.85 116.23,1804.36 115.53,1802.63"/>
    </edge>
    <edge id=":TOPE#1_0" function="internal">
        <lane id=":TOPE#1_0_0" index="0" disallow="tram rail_urban rail rail_electric ship" speed="4.79" length="0.10" shape="59.36,1486.52 59.36,1486.52"/>
        <lane id=":TOPE#1_0_1" index="1" disallow="tram rail_urban rail rail_electric ship" speed="4.79" length="0.10" shape="62.64,1486.18 62.64,1486.18"/>
        <lane id=":TOPE#1_0_2" index="2" disallow="tram rail_urban rail rail_electric ship" speed="4.79" length="0.10" shape="65.92,1485.84 65.92,1485.84"/>
    </edge>
    <edge id=":TOPE#1.0N_0" function="internal">
        <lane id=":TOPE#1.0N_0_0" index="0" disallow="tram rail_urban rail rail_electric ship" speed="5.16" length="0.10" shape="60.42,1496.66 60.42,1496.66"/>
        <lane id=":TOPE#1.0N_0_1" index="1" disallow="tram rail_urban rail rail_electric ship" speed="5.16" length="0.10" shape="63.70,1496.32 63.70,1496.32"/>
        <lane id=":TOPE#1.0N_0_2" index="2" disallow="tram rail_urban rail rail_electric ship" speed="5.16" length="0.10" shape="66.98,1495.98 66.98,1495.98"/>
    </edge>
    <edge id=":TOPE#1.10N_0" function="internal">
        <lane id=":TOPE#1.10N_0_0" index="0" disallow="tram rail_urban rail rail_electric ship" speed="10.39" length="0.10" shape="74.34,1626.11 74.34,1626.11"/>
        <lane id=":TOPE#1.10N_0_1" index="1" disallow="tram rail_urban rail rail_electric ship" speed="10.39" length="0.10" shape="77.62,1625.74 77.62,1625.74"/>
        <lane id=":TOPE#1.10N_0_2" index="2" disallow="tram rail_urban rail rail_electric ship" speed="10.39" length="0.10" shape="80.90,1625.37 80.90,1625.37"/>
    </edge>
    <edge id=":TOPE#1.11N_0" function="internal">
        <lane id=":TOPE#1.11N_0_0" index="0" disallow="tram rail_urban rail rail_electric ship" speed="10.36" length="0.10" shape="83.96,1688.97 83.96,1688.97"/>
        <lane id=":TOPE#1.11N_0_1" index="1" disallow="tram rail_urban rail rail_electric ship" speed="10.36" length="0.10" shape="87.17,1688.20 87.17,1688.20"/>
        <lane id=":TOPE#1.11N_0_2" index="2" disallow="tram rail_urban rail rail_electric ship" speed="10.36" length="0.10" shape="90.38,1687.43 90.38,1687.43"/>
    </edge>
    <edge id=":TOPE#1.1N_0" function="internal">
        <lane id=":TOPE#1.1N_0_0" index="0" disallow="tram rail_urban rail rail_electric ship" speed="5.49" length="0.10" shape="61.77,1509.70 61.77,1509.70"/>
        <lane id=":TOPE#1.1N_0_1" index="1" disallow="tram rail_urban rail rail_electric ship" speed="5.49" length="0.10" shape="65.05,1509.36 65.05,1509.36"/>
        <lane id=":TOPE#1.1N_0_2" index="2" disallow="tram rail_urban rail rail_electric ship" speed="5.49" length="0.10" shape="68.33,1509.02 68.33,1509.02"/>
    </edge>
    <edge id=":TOPE#1.2N_0" function="internal">
        <lane id=":TOPE#1.2N_0_0" index="0" disallow="tram rail_urban rail rail_electric ship" speed="5.75" length="0.10" shape="63.03,1521.92 63.03,1521.92"/>
        <lane id=":TOPE#1.2N_0_1" index="1" disallow="tram rail_urban rail rail_electric ship" speed="5.75" length="0.10" shape="66.31,1521.58 66.31,1521.58"/>
        <lane id=":TOPE#1.2N_0_2" index="2" disallow="tram rail_urban rail rail_electric ship" speed="5.75" length="0.10" shape="69.59,1521.24 69.59,1521.24"/>
    </edge>
    <edge id=":TOPE#1.3N_0" function="internal">
        <lane id=":TOPE#1.3N_0_0" index="0" disallow="tram rail_urban rail rail_electric ship" speed="6.11" length="0.10" shape="64.17,1532.93 64.17,1532.93"/>
        <lane id=":TOPE#1.3N_0_1" index="1" disallow="tram rail_urban rail rail_electric ship" speed="6.11" length="0.10" shape="67.45,1532.59 67.45,1532.59"/>
        <lane id=":TOPE#1.3N_0_2" index="2" disallow="tram rail_urban rail rail_electric ship" speed="6.11" length="0.10" shape="70.73,1532.25 70.73,1532.25"/>
    </edge>
    <edge id=":TOPE#1.4N_0" function="internal">
        <lane id=":TOPE#1.4N_0_0" index="0" disallow="tram rail_urban rail rail_electric ship" speed="6.74" length="0.10" shape="65.45,1545.27 65.45,1545.27"/>
        <lane id=":TOPE#1.4N_0_1" index="1" disallow="tram rail_urban rail rail_electric ship" speed="6.74" length="0.10" shape="68.73,1544.93 68.73,1544.93"/>
        <lane id=":TOPE#1.4N_0_2" index="2" disallow="tram rail_urban rail rail_electric ship" speed="6.74" length="0.10" shape="72.01,1544.59 72.01,1544.59"/>
    </edge>
    <edge id=":TOPE#1.5N_0" function="internal">
        <lane id=":TOPE#1.5N_0_0" index="0" disallow="tram rail_urban rail rail_electric ship" speed="7.57" length="0.10" shape="66.70,1557.28 66.70,1557.28"/>
        <lane id=":TOPE#1.5N_0_1" index="1" disallow="tram rail_urban rail rail_electric ship" speed="7.57" length="0.10" shape="69.98,1556.94 69.98,1556.94"/>
        <lane id=":TOPE#1.5N_0_2" index="2" disallow="tram rail_urban rail rail_electric ship" speed="7.57" length="0.10" shape="73.26,1556.60 73.26,1556.60"/>
    </edge>
    <edge id=":TOPE#1.6N_0" function="internal">
        <lane id=":TOPE#1.6N_0_0" index="0" disallow="tram rail_urban rail rail_electric ship" speed="8.36" length="0.10" shape="67.93,1569.22 67.93,1569.21"/>
        <lane id=":TOPE#1.6N_0_1" index="1" disallow="tram rail_urban rail rail_electric ship" speed="8.36" length="0.10" shape="71.21,1568.87 71.21,1568.87"/>
        <lane id=":TOPE#1.6N_0_2" index="2" disallow="tram rail_urban rail rail_electric ship" speed="8.36" length="0.10" shape="74.49,1568.52 74.49,1568.53"/>
    </edge>
    <edge id=":TOPE#1.7N_0" function="internal">
        <lane id=":TOPE#1.7N_0_0" index="0" disallow="tram rail_urban rail rail_electric ship" speed="8.93" length="0.10" shape="69.06,1579.86 69.06,1579.85"/>
        <lane id=":TOPE#1.7N_0_1" index="1" disallow="tram rail_urban rail rail_electric ship" speed="8.93" length="0.10" shape="72.34,1579.48 72.34,1579.48"/>
        <lane id=":TOPE#1.7N_0_2" index="2" disallow="tram rail_urban rail rail_electric ship" speed="8.93" length="0.10" shape="75.62,1579.10 75.62,1579.11"/>
    </edge>
    <edge id=":TOPE#1.8N_0" function="internal">
        <lane id=":TOPE#1.8N_0_0" index="0" disallow="tram rail_urban rail rail_electric ship" speed="9.33" length="0.10" shape="70.39,1591.44 70.39,1591.45"/>
        <lane id=":TOPE#1.8N_0_1" index="1" disallow="tram rail_urban rail rail_electric ship" speed="9.33" length="0.10" shape="73.67,1591.07 73.67,1591.07"/>
        <lane id=":TOPE#1.8N_0_2" index="2" disallow="tram rail_urban rail rail_electric ship" speed="9.33" length="0.10" shape="76.95,1590.70 76.95,1590.70"/>
    </edge>
    <edge id=":TOPE#1.9N_0" function="internal">
        <lane id=":TOPE#1.9N_0_0" index="0" disallow="tram rail_urban rail rail_electric ship" speed="9.96" length="0.10" shape="71.67,1602.70 71.67,1602.70"/>
        <lane id=":TOPE#1.9N_0_1" index="1" disallow="tram rail_urban rail rail_electric ship" speed="9.96" length="0.10" shape="74.95,1602.33 74.95,1602.33"/>
        <lane id=":TOPE#1.9N_0_2" index="2" disallow="tram rail_urban rail rail_electric ship" speed="9.96" length="0.10" shape="78.23,1601.96 78.23,1601.96"/>
    </edge>
    <edge id=":TOPE#2_0" function="internal">
        <lane id=":TOPE#2_0_0" index="0" disallow="tram rail_urban rail rail_electric ship" speed="4.96" length="0.10" shape="53.31,1419.89 53.31,1419.90"/>
        <lane id=":TOPE#2_0_1" index="1" disallow="tram rail_urban rail rail_electric ship" speed="4.96" length="0.10" shape="56.60,1419.63 56.60,1419.63"/>
        <lane id=":TOPE#2_0_2" index="2" disallow="tram rail_urban rail rail_electric ship" speed="4.96" length="0.10" shape="59.89,1419.37 59.89,1419.37"/>
    </edge>
    <edge id=":TOPE#2.0N_0" function="internal">
        <lane id=":TOPE#2.0N_0_0" index="0" disallow="tram rail_urban rail rail_electric ship" speed="4.98" length="0.10" shape="53.98,1428.23 53.98,1428.22"/>
        <lane id=":TOPE#2.0N_0_1" index="1" disallow="tram rail_urban rail rail_electric ship" speed="4.98" length="0.10" shape="57.27,1427.96 57.27,1427.96"/>
        <lane id=":TOPE#2.0N_0_2" index="2" disallow="tram rail_urban rail rail_electric ship" speed="4.98" length="0.10" shape="60.56,1427.69 60.56,1427.70"/>
    </edge>
    <edge id=":TOPE#2.1N_0" function="internal">
        <lane id=":TOPE#2.1N_0_0" index="0" disallow="tram rail_urban rail rail_electric ship" speed="5.00" length="0.10" shape="54.63,1436.26 54.63,1436.26"/>
        <lane id=":TOPE#2.1N_0_1" index="1" disallow="tram rail_urban rail rail_electric ship" speed="5.00" length="0.10" shape="57.92,1435.99 57.92,1435.99"/>
        <lane id=":TOPE#2.1N_0_2" index="2" disallow="tram rail_urban rail rail_electric ship" speed="5.00" length="0.10" shape="61.21,1435.72 61.21,1435.72"/>
    </edge>
    <edge id=":TOPE#2.2N_0" function="internal">
        <lane id=":TOPE#2.2N_0_0" index="0" disallow="tram rail_urban rail rail_electric ship" speed="5.11" length="0.10" shape="55.18,1443.02 55.18,1443.02"/>
        <lane id=":TOPE#2.2N_0_1" index="1" disallow="tram rail_urban rail rail_electric ship" speed="5.11" length="0.10" shape="58.47,1442.75 58.47,1442.75"/>
        <lane id=":TOPE#2.2N_0_2" index="2" disallow="tram rail_urban rail rail_electric ship" speed="5.11" length="0.10" shape="61.76,1442.48 61.76,1442.48"/>
    </edge>
    <edge id=":TOPE#2.3N_0" function="internal">
        <lane id=":TOPE#2.3N_0_0" index="0" disallow="tram rail_urban rail rail_electric ship" speed="5.18" length="0.10" shape="55.67,1449.09 55.67,1449.10"/>
        <lane id=":TOPE#2.3N_0_1" index="1" disallow="tram rail_urban rail rail_electric ship" speed="5.18" length="0.10" shape="58.96,1448.83 58.96,1448.83"/>
        <lane id=":TOPE#2.3N_0_2" index="2" disallow="tram rail_urban rail rail_electric ship" speed="5.18" length="0.10" shape="62.25,1448.57 62.25,1448.57"/>
    </edge>
    <edge id=":TOPE#2.4N_0" function="internal">
        <lane id=":TOPE#2.4N_0_0" index="0" disallow="tram rail_urban rail rail_electric ship" speed="5.09" length="0.10" shape="56.13,1454.86 56.13,1454.85"/>
        <lane id=":TOPE#2.4N_0_1" index="1" disallow="tram rail_urban rail rail_electric ship" speed="5.09" length="0.10" shape="59.42,1454.59 59.42,1454.59"/>
        <lane id=":TOPE#2.4N_0_2" index="2" disallow="tram rail_urban rail rail_electric ship" speed="5.09" length="0.10" shape="62.71,1454.32 62.71,1454.33"/>
    </edge>
    <edge id=":TOPE#2.5N_0" function="internal">
        <lane id=":TOPE#2.5N_0_0" index="0" disallow="tram rail_urban rail rail_electric ship" speed="4.94" length="0.10" shape="56.68,1460.58 56.68,1460.58"/>
        <lane id=":TOPE#2.5N_0_1" index="1" disallow="tram rail_urban rail rail_electric ship" speed="4.94" length="0.10" shape="59.96,1460.24 59.96,1460.24"/>
        <lane id=":TOPE#2.5N_0_2" index="2" disallow="tram rail_urban rail rail_electric ship" speed="4.94" length="0.10" shape="63.24,1459.90 63.24,1459.90"/>
    </edge>
    <edge id=":TOPE#2.6N_0" function="internal">
        <lane id=":TOPE#2.6N_0_0" index="0" disallow="tram rail_urban rail rail_electric ship" speed="4.77" length="0.10" shape="57.24,1466.04 57.24,1466.04"/>
        <lane id=":TOPE#2.6N_0_1" index="1" disallow="tram rail_urban rail rail_electric ship" speed="4.77" length="0.10" shape="60.52,1465.70 60.52,1465.70"/>
        <lane id=":TOPE#2.6N_0_2" index="2" disallow="tram rail_urban rail rail_electric ship" speed="4.77" length="0.10" shape="63.80,1465.36 63.80,1465.36"/>
    </edge>
    <edge id=":TOPE#2.7N_0" function="internal">
        <lane id=":TOPE#2.7N_0_0" index="0" disallow="tram rail_urban rail rail_electric ship" speed="4.62" length="0.10" shape="57.80,1471.44 57.80,1471.44"/>
        <lane id=":TOPE#2.7N_0_1" index="1" disallow="tram rail_urban rail rail_electric ship" speed="4.62" length="0.10" shape="61.08,1471.10 61.08,1471.10"/>
        <lane id=":TOPE#2.7N_0_2" index="2" disallow="tram rail_urban rail rail_electric ship" speed="4.62" length="0.10" shape="64.36,1470.76 64.36,1470.76"/>
    </edge>
    <edge id=":TOPE#2.8N_0" function="internal">
        <lane id=":TOPE#2.8N_0_0" index="0" disallow="tram rail_urban rail rail_electric ship" speed="4.56" length="0.10" shape="58.27,1475.99 58.27,1475.99"/>
        <lane id=":TOPE#2.8N_0_1" index="1" disallow="tram rail_urban rail rail_electric ship" speed="4.56" length="0.10" shape="61.55,1475.65 61.55,1475.65"/>
        <lane id=":TOPE#2.8N_0_2" index="2" disallow="tram rail_urban rail rail_electric ship" speed="4.56" length="0.10" shape="64.83,1475.31 64.83,1475.31"/>
    </edge>
    <edge id=":TOPE#2.9N_0" function="internal">
        <lane id=":TOPE#2.9N_0_0" index="0" disallow="tram rail_urban rail rail_electric ship" speed="4.58" length="0.10" shape="58.79,1480.97 58.79,1480.97"/>
        <lane id=":TOPE#2.9N_0_1" index="1" disallow="tram rail_urban rail rail_electric ship" speed="4.58" length="0.10" shape="62.07,1480.63 62.07,1480.63"/>
        <lane id=":TOPE#2.9N_0_2" index="2" disallow="tram rail_urban rail rail_electric ship" speed="4.58" length="0.10" shape="65.35,1480.29 65.35,1480.29"/>
    </edge>
    <edge id=":gneJ26_0" function="internal">
        <lane id=":gneJ26_0_0" index="0" disallow="tram rail_urban rail rail_electric ship" speed="4.99" length="0.10" shape="52.82,1413.86 52.82,1413.86"/>
        <lane id=":gneJ26_0_1" index="1" disallow="tram rail_urban rail rail_electric ship" speed="4.99" length="0.10" shape="56.11,1413.59 56.11,1413.59"/>
        <lane id=":gneJ26_0_2" index="2" disallow="tram rail_urban rail rail_electric ship" speed="4.99" length="0.10" shape="59.40,1413.32 59.40,1413.32"/>
    </edge>
    <edge id=":gneJ27_0" function="internal">
        <lane id=":gneJ27_0_0" index="0" disallow="tram rail_urban rail rail_electric ship" speed="5.13" length="0.10" shape="52.38,1408.42 52.38,1408.41"/>
        <lane id=":gneJ27_0_1" index="1" disallow="tram rail_urban rail rail_electric ship" speed="5.13" length="0.10" shape="55.67,1408.15 55.67,1408.15"/>
        <lane id=":gneJ27_0_2" index="2" disallow="tram rail_urban rail rail_electric ship" speed="5.13" length="0.10" shape="58.96,1407.88 58.96,1407.89"/>
    </edge>
    <edge id=":gneJ28_0" function="internal">
        <lane id=":gneJ28_0_0" index="0" disallow="tram rail_urban rail rail_electric ship" speed="5.43" length="0.10" shape="51.92,1402.67 51.92,1402.67"/>
        <lane id=":gneJ28_0_1" index="1" disallow="tram rail_urban rail rail_electric ship" speed="5.43" length="0.10" shape="55.21,1402.41 55.21,1402.41"/>
        <lane id=":gneJ28_0_2" index="2" disallow="tram rail_urban rail rail_electric ship" speed="5.43" length="0.10" shape="58.50,1402.15 58.50,1402.15"/>
    </edge>
    <edge id=":gneJ29_0" function="internal">
        <lane id=":gneJ29_0_0" index="0" disallow="tram rail_urban rail rail_electric ship" speed="5.87" length="0.10" shape="51.44,1396.68 51.44,1396.69"/>
        <lane id=":gneJ29_0_1" index="1" disallow="tram rail_urban rail rail_electric ship" speed="5.87" length="0.10" shape="54.73,1396.42 54.73,1396.42"/>
        <lane id=":gneJ29_0_2" index="2" disallow="tram rail_urban rail rail_electric ship" speed="5.87" length="0.10" shape="58.02,1396.16 58.02,1396.16"/>
    </edge>
    <edge id=":gneJ30_0" function="internal">
        <lane id=":gneJ30_0_0" index="0" disallow="tram rail_urban rail rail_electric ship" speed="6.41" length="0.10" shape="50.92,1390.29 50.92,1390.28"/>
        <lane id=":gneJ30_0_1" index="1" disallow="tram rail_urban rail rail_electric ship" speed="6.41" length="0.10" shape="54.21,1390.02 54.21,1390.02"/>
        <lane id=":gneJ30_0_2" index="2" disallow="tram rail_urban rail rail_electric ship" speed="6.41" length="0.10" shape="57.50,1389.75 57.50,1389.76"/>
    </edge>
    <edge id=":gneJ31_0" function="internal">
        <lane id=":gneJ31_0_0" index="0" disallow="tram rail_urban rail rail_electric ship" speed="7.23" length="0.10" shape="50.46,1384.48 50.46,1384.49"/>
        <lane id=":gneJ31_0_1" index="1" disallow="tram rail_urban rail rail_electric ship" speed="7.23" length="0.10" shape="53.75,1384.22 53.75,1384.22"/>
        <lane id=":gneJ31_0_2" index="2" disallow="tram rail_urban rail rail_electric ship" speed="7.23" length="0.10" shape="57.04,1383.96 57.04,1383.96"/>
    </edge>
    <edge id=":gneJ33_0" function="internal">
        <lane id=":gneJ33_0_0" index="0" disallow="tram rail_urban rail rail_electric ship" speed="8.12" length="0.10" shape="49.59,1373.73 49.59,1373.72"/>
        <lane id=":gneJ33_0_1" index="1" disallow="tram rail_urban rail rail_electric ship" speed="8.12" length="0.10" shape="52.88,1373.46 52.88,1373.46"/>
        <lane id=":gneJ33_0_2" index="2" disallow="tram rail_urban rail rail_electric ship" speed="8.12" length="0.10" shape="56.17,1373.19 56.17,1373.20"/>
    </edge>
    <edge id=":gneJ34_0" function="internal">
        <lane id=":gneJ34_0_0" index="0" disallow="tram rail_urban rail rail_electric ship" speed="8.74" length="0.10" shape="48.73,1363.00 48.73,1363.01"/>
        <lane id=":gneJ34_0_1" index="1" disallow="tram rail_urban rail rail_electric ship" speed="8.74" length="0.10" shape="52.02,1362.74 52.02,1362.74"/>
        <lane id=":gneJ34_0_2" index="2" disallow="tram rail_urban rail rail_electric ship" speed="8.74" length="0.10" shape="55.31,1362.48 55.31,1362.48"/>
    </edge>
    <edge id=":gneJ35_0" function="internal">
        <lane id=":gneJ35_0_0" index="0" disallow="tram rail_urban rail rail_electric ship" speed="9.11" length="0.10" shape="47.85,1352.17 47.85,1352.16"/>
        <lane id=":gneJ35_0_1" index="1" disallow="tram rail_urban rail rail_electric ship" speed="9.11" length="0.10" shape="51.14,1351.90 51.14,1351.90"/>
        <lane id=":gneJ35_0_2" index="2" disallow="tram rail_urban rail rail_electric ship" speed="9.11" length="0.10" shape="54.43,1351.63 54.43,1351.64"/>
    </edge>
    <edge id=":gneJ36_0" function="internal">
        <lane id=":gneJ36_0_0" index="0" disallow="tram rail_urban rail rail_electric ship" speed="9.35" length="0.10" shape="46.94,1340.80 46.94,1340.81"/>
        <lane id=":gneJ36_0_1" index="1" disallow="tram rail_urban rail rail_electric ship" speed="9.35" length="0.10" shape="50.23,1340.54 50.23,1340.54"/>
        <lane id=":gneJ36_0_2" index="2" disallow="tram rail_urban rail rail_electric ship" speed="9.35" length="0.10" shape="53.52,1340.28 53.52,1340.28"/>
    </edge>
    <edge id=":gneJ37_0" function="internal">
        <lane id=":gneJ37_0_0" index="0" disallow="tram rail_urban rail rail_electric ship" speed="9.62" length="0.10" shape="46.04,1329.73 46.04,1329.72"/>
        <lane id=":gneJ37_0_1" index="1" disallow="tram rail_urban rail rail_electric ship" speed="9.62" length="0.10" shape="49.33,1329.46 49.33,1329.46"/>
        <lane id=":gneJ37_0_2" index="2" disallow="tram rail_urban rail rail_electric ship" speed="9.62" length="0.10" shape="52.62,1329.19 52.62,1329.20"/>
    </edge>
    <edge id=":gneJ38_0" function="internal">
        <lane id=":gneJ38_0_0" index="0" disallow="tram rail_urban rail rail_electric ship" speed="9.87" length="0.10" shape="45.17,1318.86 45.17,1318.86"/>
        <lane id=":gneJ38_0_1" index="1" disallow="tram rail_urban rail rail_electric ship" speed="9.87" length="0.10" shape="48.46,1318.60 48.46,1318.60"/>
        <lane id=":gneJ38_0_2" index="2" disallow="tram rail_urban rail rail_electric ship" speed="9.87" length="0.10" shape="51.75,1318.34 51.75,1318.34"/>
    </edge>
    <edge id=":gneJ39_0" function="internal">
        <lane id=":gneJ39_0_0" index="0" disallow="tram rail_urban rail rail_electric ship" speed="10.02" length="0.10" shape="44.29,1307.89 44.29,1307.90"/>
        <lane id=":gneJ39_0_1" index="1" disallow="tram rail_urban rail rail_electric ship" speed="10.02" length="0.10" shape="47.58,1307.63 47.58,1307.63"/>
        <lane id=":gneJ39_0_2" index="2" disallow="tram rail_urban rail rail_electric ship" speed="10.02" length="0.10" shape="50.87,1307.37 50.87,1307.37"/>
    </edge>
    <edge id=":gneJ40_0" function="internal">
        <lane id=":gneJ40_0_0" index="0" disallow="tram rail_urban rail rail_electric ship" speed="10.10" length="0.10" shape="43.44,1297.36 43.44,1297.36"/>
        <lane id=":gneJ40_0_1" index="1" disallow="tram rail_urban rail rail_electric ship" speed="10.10" length="0.10" shape="46.73,1297.09 46.73,1297.09"/>
        <lane id=":gneJ40_0_2" index="2" disallow="tram rail_urban rail rail_electric ship" speed="10.10" length="0.10" shape="50.02,1296.82 50.02,1296.82"/>
    </edge>
    <edge id=":gneJ41_0" function="internal">
        <lane id=":gneJ41_0_0" index="0" disallow="tram rail_urban rail rail_electric ship" speed="10.17" length="0.10" shape="42.60,1286.98 42.60,1286.97"/>
        <lane id=":gneJ41_0_1" index="1" disallow="tram rail_urban rail rail_electric ship" speed="10.17" length="0.10" shape="45.89,1286.71 45.89,1286.71"/>
        <lane id=":gneJ41_0_2" index="2" disallow="tram rail_urban rail rail_electric ship" speed="10.17" length="0.10" shape="49.18,1286.44 49.18,1286.45"/>
    </edge>
    <edge id=":gneJ42_0" function="internal">
        <lane id=":gneJ42_0_0" index="0" disallow="tram rail_urban rail rail_electric ship" speed="10.23" length="0.10" shape="41.75,1276.37 41.75,1276.38"/>
        <lane id=":gneJ42_0_1" index="1" disallow="tram rail_urban rail rail_electric ship" speed="10.23" length="0.10" shape="45.04,1276.11 45.04,1276.11"/>
        <lane id=":gneJ42_0_2" index="2" disallow="tram rail_urban rail rail_electric ship" speed="10.23" length="0.10" shape="48.33,1275.85 48.33,1275.85"/>
    </edge>
    <edge id=":gneJ43_0" function="internal">
        <lane id=":gneJ43_0_0" index="0" disallow="tram rail_urban rail rail_electric ship" speed="10.30" length="0.10" shape="40.84,1265.19 40.84,1265.18"/>
        <lane id=":gneJ43_0_1" index="1" disallow="tram rail_urban rail rail_electric ship" speed="10.30" length="0.10" shape="44.13,1264.92 44.13,1264.92"/>
        <lane id=":gneJ43_0_2" index="2" disallow="tram rail_urban rail rail_electric ship" speed="10.30" length="0.10" shape="47.42,1264.65 47.42,1264.66"/>
    </edge>
    <edge id=":gneJ44_0" function="internal">
        <lane id=":gneJ44_0_0" index="0" disallow="tram rail_urban rail rail_electric ship" speed="10.37" length="0.10" shape="39.95,1254.13 39.95,1254.13"/>
        <lane id=":gneJ44_0_1" index="1" disallow="tram rail_urban rail rail_electric ship" speed="10.37" length="0.10" shape="43.24,1253.87 43.24,1253.87"/>
        <lane id=":gneJ44_0_2" index="2" disallow="tram rail_urban rail rail_electric ship" speed="10.37" length="0.10" shape="46.53,1253.61 46.53,1253.61"/>
    </edge>
    <edge id=":gneJ45_0" function="internal">
        <lane id=":gneJ45_0_0" index="0" disallow="tram rail_urban rail rail_electric ship" speed="10.61" length="0.10" shape="39.06,1243.05 39.06,1243.06"/>
        <lane id=":gneJ45_0_1" index="1" disallow="tram rail_urban rail rail_electric ship" speed="10.61" length="0.10" shape="42.35,1242.79 42.35,1242.79"/>
        <lane id=":gneJ45_0_2" index="2" disallow="tram rail_urban rail rail_electric ship" speed="10.61" length="0.10" shape="45.64,1242.53 45.64,1242.53"/>
    </edge>
    <edge id=":gneJ46_0" function="internal">
        <lane id=":gneJ46_0_0" index="0" disallow="tram rail_urban rail rail_electric ship" speed="10.94" length="0.10" shape="38.14,1231.65 38.14,1231.64"/>
        <lane id=":gneJ46_0_1" index="1" disallow="tram rail_urban rail rail_electric ship" speed="10.94" length="0.10" shape="41.43,1231.38 41.43,1231.38"/>
        <lane id=":gneJ46_0_2" index="2" disallow="tram rail_urban rail rail_electric ship" speed="10.94" length="0.10" shape="44.72,1231.11 44.72,1231.12"/>
    </edge>
    <edge id=":gneJ47_0" function="internal">
        <lane id=":gneJ47_0_0" index="0" disallow="tram rail_urban rail rail_electric ship" speed="11.08" length="0.10" shape="37.18,1219.75 37.18,1219.75"/>
        <lane id=":gneJ47_0_1" index="1" disallow="tram rail_urban rail rail_electric ship" speed="11.08" length="0.10" shape="40.47,1219.48 40.47,1219.48"/>
        <lane id=":gneJ47_0_2" index="2" disallow="tram rail_urban rail rail_electric ship" speed="11.08" length="0.10" shape="43.76,1219.21 43.76,1219.21"/>
    </edge>
    <edge id=":gneJ49_0" function="internal">