<?xml version="1.0" encoding="UTF-8"?>
<nodes xmlns:xsi="http://www.w3.org/2001/XMLSchema-instance"
 xsi:noNamespaceSchemaLocation="http://sumo.sf.net/xsd/nodes_file.xsd">
   <node id="n1" x="0" y="0.0" />
   <node id="n2" x="600.0" y="0.0" />
   <node id="n3" x="605" y="0.0" />
   <node id="n4" x="1250" y="0.0" />
</nodes>
